      3C
Y 000003
00000000
00000000
00000000
00000000
00000000
00000000
00000000
00000000
00000000
00000000
00000000
00000000
00000000
00000000
00000000
00000000
00000000
00000000
00000000
00000000
00000000
00000000
00000000
00000000
00000000
00000000
00000000
00000000
00000000
00000000
00000000
00000000
00000000
00000000
00000000
00000000
00000000
00000000
00000000
00000000
000002EF
0000034A
00864991
008648C6
00000116
00000173
000001E6
0000000A
00000400
00000200
00000100
00000080
00000000
00000000
00000000
00000000
00000000
00000000
00000007
00000000
      6A
Y 000046
00000000
00000000
00000000
00000000
00000000
00000000
00000000
00000000
00000000
00000000
00000000
00000080
00000A15
00000000
00000000
00000000
00000000
00000000
00000000
00000000
00000000
00000000
00000000
00000000
00000000
00000000
00000000
00000000
000003BD
000003B6
000003AF
000003AB
000002E3
00000100
0000013F
00000194
000001BF
00000202
00000252
0000029C
00864994
008649AD
008649BF
008649F3
00864A08
00864A1F
00864A49
00864A73
00864A79
00864A7F
00864A85
00864A8A
00864AA3
00864AE4
00864AF2
00864B00
00864B0C
00864804
00864815
00864827
0086483A
0086484D
00864862
0086487C
00864893
008648AA
008648DA
008648E3
008648EC
008648F5
008648FE
00864907
00864910
00864919
00864922
0086492B
00864934
0086493D
00864946
0086494F
00864958
00864961
0086496A
00864973
0086497C
00864983
0086498A
00864B1C
00000000
00000000
00000000
00000000
00864B59
00864B86
00864BB9
00864BE8
00864B3F
00864B6C
00864B9F
00864BCE
00864C8F
00864CA6
00864CBE
00864CD1
00864D53
00864B1D
       7
Y 000300
00000000
00000100
00000100
00000400
00000300
00000100
00000100
       1
Y 0003F7
000003F8
       3
X 000000
00000000
00000000
00000000
       8
X 000026
00000001
00000002
00000003
00000004
00000005
00000000
00000000
00000000
       8
X 000040
008674B4
00000077
000001C7
000001C7
00000FFF
00865485
00865485
00866485
      1C
X 000051
0010006C
00100070
00100074
00100078
0010007C
00100080
0010006D
00100071
00100075
00100079
0010007D
00100081
00300036
00300039
0030003C
0030003F
00300042
00300045
00000000
00000000
00000000
00000000
00000000
00000000
00000000
00000000
00000000
00000000
       4
X 00006F
00000000
00000210
000001B8
00000108
       1
X 000086
00000000
      22
X 00009F
00000006
0000001E
00000050
00000334
00000050
00000050
00000118
000005C0
00000050
00000020
00000001
00000BB8
00000001
00000FA0
00000003
00000000
00000002
0000000C
00000000
00001111
00002222
00004444
00008888
00005555
0000AAAA
0000FFFF
0000EEEE
0000DDDD
0000BBBB
00007777
00000000
00000000
00000000
00000000
      15
X 0000D9
00000000
00000000
00000000
00000001
00000002
00000018
00000019
0000001A
00000020
00000022
00000023
00000028
00000030
00000038
00000050
00000051
00000090
000000C0
00000091
00000009
0000000A
       7
X 000400
00000000
00820000
0086A000
00840000
0086C000
00820000
0086A000
       1
X 000767
00000768
      4C
P 000100
000A0F41
0005F42A
000007D0
0005F438
00000020
00044CBA
000140C6
00E0FFFF
00000000
0004CCBA
000AFA74
000A0F41
0044F400
00000700
004C7000
00000040
006FF000
00000040
0005DFA7
000BF080
000006D7
000A8523
000A8504
000A8505
0056F400
0000430C
000ABA0C
0004CCBA
000BF080
00000719
0060F400
00000002
00000000
0004D020
00000000
0060F400
00000127
00607000
00000050
0060F000
00000050
00000000
00000000
00000000
000AE080
00455F00
0056F400
00000001
000A8982
00000130
0008440B
000C1E18
0004453D
00200063
0020A400
0021C500
00000000
000A8982
00000139
00084E0B
00000000
00200003
000D104A
00000006
0020AE00
00000000
00200042
00000000
0004CE3D
00000000
0045FF00
000A8981
00000147
0008F48D
00000000
00000004
      2F
P 00014C
0007F40F
00000A00
0007F40B
00000A00
0007F407
00000A00
00000084
0054F400
00FFFFFF
00000000
0004CCA0
0004CCA1
0004CCA2
0004CCA3
0004CCA4
0004CCA5
0004CCA6
0004CCA7
0005F43B
00000000
0005F431
00000000
0008F4BE
00000001
0000FCB8
002C0000
00300000
00067F90
00000005
0007588C
0007588C
00000000
00000000
00000000
0054F400
000BF080
00000000
0007000C
00070A0C
0054F400
0000014C
00000000
0007010C
00070B0C
000AF080
00FF0000
00000004
      4C
P 00017B
000AF080
00000265
000AF080
0000028F
000AF080
000002BB
0007F40F
00000A00
0007F40B
00000A00
0007F407
00000A00
000ABF06
000ABF07
000ABF08
000CC902
00000000
0008708B
0000005D
000CC902
00000000
0008708B
0000005E
000CC902
00000000
0008708B
0000005F
000CC902
00000000
0008708B
00000060
000CC902
00000000
0008708B
00000061
000CC902
00000000
0008708B
00000062
000CC901
00000000
0008F48D
00000000
0073FF00
0005FF23
0063FF00
0044FF00
0050FF00
0054FF00
0052FF00
00000004
000D1080
00000529
000BF080
00000514
000BF080
00863487
000CC901
00000000
0008F48D
00000000
000A0F61
000AF080
00000200
000CC901
00000000
00073080
00FFFFCD
00000000
00000000
000CC901
00000000
00073087
00FFFFCD
000AF080
00000200
      41
P 0001C7
00525F00
00545F00
00505F00
000A8982
000001CA
00084E0B
00445F32
000140C4
00000001
0044F400
00000021
0002F040
000140C5
0000001F
00027040
00635F00
00219300
00055F23
00735F00
00000000
000D1BC0
000AF080
00000181
000AF080
008600FE
000AF080
000002CC
000AF080
00860418
000AF080
008602EB
000AF080
00860104
000AF080
0086144E
000AF080
00861902
000AF080
0086190F
000AF080
00861917
000AF080
0000037E
000AF080
000003E0
000AF080
000001AE
000AF080
000001BB
000AF080
00861927
000AF080
000003FA
000A8981
000001FC
0008F48D
00000010
0073FF00
0005FF23
0063FF00
0044FF00
0050FF00
0054FF00
0052FF00
00000004
     1CF
P 000208
00635F00
00615F00
00655F00
00755F00
00055F25
00659D00
000A8982
0000020E
00085D0B
0005F425
00FFFFFF
00525F00
00505F00
00545F00
00204D00
005EE500
000140C6
000000FF
00000000
00219300
0054FF00
0050FF00
0052FF00
000D1BC0
000A8981
00000220
0008F48D
00000000
00050C0C
000B75D5
00000300
000A8981
00000227
0008D50D
00050C06
000B75D5
00000200
000A8981
0000022D
0008E5CD
0005FF25
0075FF00
0065FF00
0061FF00
0063FF00
00000004
00655F00
00755F00
00055F25
00659D00
000A8982
0000023A
00085D0B
0005F425
00FFFFFF
00525F00
00505F00
00545F00
00204D00
000B75CE
00000100
000140C6
000000FF
00635F00
00219300
000A8982
00000249
00084E0B
00615F00
000B75D1
00000200
000D1BC0
000A8981
00000250
0008F48D
0000000C
00050C08
005C6100
000B758C
00000300
000A8981
00000258
0008F48D
00000000
0061FF00
0063FF00
0054FF00
0050FF00
0052FF00
0005FF25
0075FF00
0065FF00
00000004
000140C5
00000100
00059404
0056F400
0000000A
0000000C
00655F00
00755F00
00055F25
00659D00
00219D00
0005F425
00FFFFFF
00535F00
00515F00
00555F00
00204D00
005FE500
000C1ED1
000140CE
000000FF
00635F00
0021B300
00615F00
000B75D1
00000200
000D1BC0
00200013
00050C05
000B75CE
00000300
00050C02
005EE100
0061FF00
0063FF00
0055FF00
0051FF00
0053FF00
0005FF25
0075FF00
0065FF00
0000000C
000140C5
00000100
00059404
0056F400
0000000A
0000000C
00655F00
00755F00
00055F25
00659D00
00219D00
0005F425
00FFFFFF
00535F00
00515F00
00555F00
00204D00
000B75CF
00000100
000C1ED1
000140CE
000000FF
00635F00
0021B300
00615F00
000B75D1
00000200
000D1BC0
0056F400
0000000C
00050C05
00586100
000B7588
00000300
00200013
0061FF00
0063FF00
0055FF00
0051FF00
0053FF00
0005FF25
0075FF00
0065FF00
0000000C
00655F00
00755F00
00055F25
00659D00
00219D00
0005F425
00FFFFFF
00000000
00000000
00204D00
00000000
000B75CE
00000200
0005FF25
0075FF00
0065FF00
0000000C
000A8981
000002CC
0008F48D
0000000C
000A98B7
000002D0
0008F49B
00000508
0008F499
0000000B
0008F49A
00FFFFCD
0008F498
0088F252
0073FF00
0005FF23
0063FF00
0044FF00
0050FF00
0054FF00
0052FF00
00000004
00525F00
00505F00
00545F13
00445F00
00455F00
00615F00
000A8982
000002E8
00084E0B
00000000
000CCE97
00000006
000ACE57
000140C4
00000003
00050C02
00200033
0044F000
0000006C
000140C0
00000050
000D017F
0021D100
000CC481
00000012
004CE100
00000000
004DE100
000A8981
000002FE
0008C40D
000A8981
00000301
0008C50D
0061FF00
0045FF00
0044FF00
0054FF00
0050FF00
0052FF00
00000004
004CE100
00000000
000A8981
0000030D
0008C40D
0061FF00
0045FF00
0044FF00
0054FF00
0050FF00
0052FF00
00000004
00525F00
00505F00
00545F00
00445F00
00455F00
00200013
000A8982
0000031D
0008440B
0007F08E
00D0FFFF
0007F084
00D0FFFE
000C1940
00008020
0007F084
00D0FFFD
000C1940
00008028
0044F400
00D01000
00218E00
000140C5
00D02000
00022040
00000000
0021C400
000A8982
00000332
00084E0B
00014184
00000000
00000000
0021C500
000AACB7
00000347
0008C42F
0008F4AE
00FFFFCD
0008C52D
0008F4AC
0088F252
0045FF00
0044FF00
0054FF00
0050FF00
0052FF00
00000004
00209300
0006C510
00000006
000A8981
0000034A
0008DB4D
00000000
00000000
000A8981
0000034F
0008DB4D
0045FF00
0044FF00
0054FF00
0050FF00
0052FF00
00000004
00635F00
00055F23
00735F00
0005F423
00FFFFFF
0063F400
008679C7
000CC902
00000000
00085B0B
000CC902
00000000
00086BCB
000CC901
00000000
0008F48D
00000000
0073FF00
0005FF23
0063FF00
00000004
00635F00
00055F23
00735F00
0005F423
00FFFFFF
0063F400
008679C7
000CC902
00000000
00085B0B
000CC901
00000000
0008EBCD
0073FF00
0005FF23
0063FF00
00000004
00645F00
00055F24
0064F400
000003D7
0005F424
00FFFFFF
000463A4
000CC902
00000000
0008530B
000CC902
00000000
0008440B
0056F400
00000008
00200044
0005945D
00645F00
0006C410
00000006
000CC902
00000000
00085C4B
00000000
00000000
0006CC10
00000006
00200013
00000000
00075C8C
00000000
00000000
0064FF00
0044F441
00000003
00200040
000C1C04
00000000
0006CC10
00000018
0044F400
000000AA
00077084
00D05555
0044F400
00000055
00077084
00D02AAA
0044F400
000000A0
00077084
00D05555
00060490
00000004
0007DC84
00075B84
00000000
0044F400
001E8480
0006C420
00000000
00000000
00000000
000CC901
00000000
0008F48D
00000000
0005FF24
0064FF00
0073FF00
0005FF23
0063FF00
0044FF00
0050FF00
0054FF00
0052FF00
00000004
0006C410
00000006
000CC902
00000000
0008440B
00000000
00000000
000CC901
00000000
0008F48D
00000002
00050FCB
     129
P 0003DF
00000000
000CC902
00000000
0008530B
000CC902
00000000
0008440B
0005F423
00FFFFFF
0006C410
00000009
0007DB8E
000140C6
000000FF
000CC901
00000000
0008CC0D
00000000
00000000
0073FF00
0005FF23
0063FF00
0044FF00
0050FF00
0054FF00
0052FF00
00000004
000A8982
000003FA
00084E0B
00000000
00218D00
00000000
000A8982
00000400
00084E0B
00000000
00218900
00000000
00000000
00645F00
00625F00
000140CE
0000DFFF
000140C8
00D02000
0062F400
00D70000
0005F422
00FFFFFF
0044F400
000000AA
00077084
00D05555
0044F400
00000055
00077084
00D02AAA
0044F400
00000080
00077084
00D05555
0044F400
000000AA
00077084
00D05555
0044F400
00000055
00077084
00D02AAA
0044F413
00000030
00076284
0007E28C
000140C6
000000FF
000140C5
000000FF
000E2428
0044F400
000000F0
00077084
00D05555
00200013
0046F400
00010000
000464A2
0064F400
00D00000
00000000
0006C610
00000041
00228E00
0021A400
0007DC85
00000000
00200045
000D1042
00000004
00212500
00000000
002E0A00
0044F400
000000AA
00077084
00D05555
0044F400
00000055
00077084
00D02AAA
0021DA00
0044F413
000000A0
00077084
00D05555
00076285
0020A400
0007E28C
00200043
00000000
000ACC27
00000454
00200013
0020AC00
000140C6
000000FF
00000000
00218400
0007E28C
000140C6
000000FF
00200045
000AF0AA
00000476
0044F400
000000AA
00077084
00D05555
0044F400
00000055
00077084
00D02AAA
0044F400
000000F0
00077084
00D05555
00234E00
00014184
000E2445
0072F400
00FFFFFF
003A0000
00000000
00000000
00000000
00205A00
00000000
00000000
000140C8
00070000
00000000
0021B200
0005F422
00FFFFFF
00200013
00212500
0007E28E
000140C6
000000FF
00000000
000C1FFC
0056F400
00F00000
000D1042
00000076
0062F400
00D00000
0005F422
00FFFFFF
0044F400
000000AA
00077084
00D05555
0044F400
00000055
00077084
00D02AAA
0044F400
00000080
00077084
00D05555
0044F400
000000AA
00077084
00D05555
0044F400
00000055
00077084
00D02AAA
0044F413
00000030
00076284
0007E28C
000140C6
000000FF
000140C5
000000FF
000E24A9
0044F400
000000F0
00077084
00D05555
00200013
0046F400
00010000
000464A2
0064F400
00D70000
00000000
0006C610
0000003A
0007DC85
00000000
002E0A00
0044F400
000000AA
00077084
00D05555
0044F400
00000055
00077084
00D02AAA
0021DA00
0044F413
000000A0
00077084
00D05555
00076285
0020A400
0007E28C
00200043
00000000
000ACC27
000004CE
00200013
0020AC00
000140C6
000000FF
00000000
00218400
0007E28C
000140C6
000000FF
00200045
000AF0AA
000004F0
0044F400
000000AA
00077084
00D05555
0044F400
00000055
00077084
00D02AAA
0044F400
000000F0
00077084
00D05555
00234E00
00014184
000E24BF
0072F400
00FFFFFF
003A0000
00000000
00000000
00000000
00205A00
00000000
00000000
000140CC
00070000
00000000
0021B200
0005F422
00FFFFFF
00200013
00000000
0007E28E
000140C6
000000FF
0062FF00
0064FF00
000A8981
00000504
0008CE0D
00000004
       7
P 000508
004D432E
00504349
005F4C54
00205632
002E392E
0030342E
00333620
       4
P 00050F
00203033
002E3034
002E3230
00313320
       1
P 000513
00000000
     269
P 000514
00525F00
00505F00
00545F00
00535F00
00515F00
00555F00
00445F00
00455F00
00625F00
00725F00
00055F22
00635F00
00735F00
00055F23
00645F00
00745F00
00055F24
00655F00
00755F00
00055F25
0005F422
00FFFFFF
000463A2
000464A2
000465A2
0008F4B8
00D00409
0008F4BE
00000000
0008F4BF
00000000
0007F40F
00000A00
0007F40B
00000A00
0007F407
00000A00
0007F40E
00000000
0007F40A
00000000
0007F406
00000000
0007F40D
00FFFFFF
0007F409
00FFFFFF
0007F405
00FFFFFF
0005F439
00000000
0008F4BE
00000301
0008F4BF
00000177
0007F08E
00D0FFFF
0007F084
00D0FFFE
000C1940
00008020
0007F084
00D0FFFD
000C1940
00008028
00000000
00218E00
0044F400
00D01000
000140C5
00D02000
00022040
00000000
00547000
0000006E
00355100
00060C90
00000013
00200013
0056E500
000140C6
0000FFFF
0044F000
0000006E
00200040
00000000
00219300
00000000
00000000
00200013
0007DB84
000C1940
00008018
00000000
00545D00
00000000
00000000
0056F000
0000005F
000140C5
00060000
0005A49E
000140C5
00010000
0005A41B
000140C5
00002000
0005A410
00240000
0063F400
000001B2
00060290
00000004
00075B84
00000000
00000000
0056F400
00000100
0044F400
00040000
00445F00
00541D00
00050D0F
0044F400
00040003
00445F00
0044F400
00000000
0045F400
00000000
00050C08
0044F400
00040003
00445F00
0044F400
00008000
0045F400
00004000
0056F000
00000060
0057F000
0000005F
00541D4C
000140C0
00000400
000140CC
00000400
005C7000
000000B1
005C7000
000000B2
00200010
00000000
005C7000
000000B3
00547000
00000402
00547000
00000406
00200040
00000000
00547000
00000404
00240000
00447000
00000400
0056F000
0000005E
0044F000
0000005D
00547000
00000401
00200040
00200064
00000000
00547000
00000403
00000000
00547000
000000EF
00547000
000000EE
00200060
00000000
00547000
000000F0
0044F400
00838000
004C7000
0000009E
0044F400
00008000
004C7000
0000009F
00050C87
0044F400
00000002
00445F00
0056F000
00000060
000140C0
00008000
0057F000
0000005F
00547000
00000402
00547000
00000406
000140C0
00008000
00000000
00547000
00000404
00541D00
000140C0
00000400
00000000
005C7000
000000B1
005C7000
000000B2
0056F000
00000060
00200010
00248000
005C7000
000000B3
004C7000
0000009E
0044F400
00008000
004C7000
0000009F
00240000
00447000
00000400
0056F000
0000005E
0044F000
0000005D
00547000
00000401
00547000
00000405
00200040
00000000
00547000
000000F0
000140C4
00008000
00000000
00547000
000000EF
00547000
000000EE
00547000
00000403
0044F400
00800000
004C7000
0000009E
0044F400
00008000
004C7000
0000009F
0056F000
0000006E
000140C0
00000200
00000000
00219300
00569D00
000140C0
00000100
00000000
00541E00
000140C0
00000100
00659D00
00541F00
000140C0
00000100
0005F423
00FFFFFF
00542000
000465A3
00060094
00000008
000CC902
00000000
00084E0B
00000000
005C5D00
00000000
00000000
000D10C0
00000012
00060094
0000000F
00200013
0007DB84
000C1940
00008028
0007DB84
000C1940
00008020
0007DB84
000C1940
00008018
00000000
005C5D00
00000000
00000000
00639D00
0005F423
00FFFFFF
00060091
0000001B
005EE300
000140C5
00000001
00052405
0044F400
0000060C
004C6300
00050C11
000140C5
0000000A
00052408
0044F400
00000306
004C6300
00240000
000B7384
00000300
00050C07
000140C5
00000013
00052404
0044F400
00000101
004C6300
00205B00
00000000
00639E00
0005F423
00FFFFFF
00060091
00000018
005EE300
000140C5
00000001
00052405
0044F400
00000406
004C6300
00050C0E
000140C5
0000000F
00052405
0044F400
00000507
004C6300
00050C07
000140C5
0000001B
00052404
0044F400
00000101
004C6300
00205B00
00000000
0056F400
00000002
000D017B
00218400
0054FF00
00200042
00000000
00218800
0054F400
00000002
000D017D
0033DB00
0044F400
00000013
0005F423
00FFFFFF
0006C410
0000000F
0056E300
00000000
00449F00
00200040
00000000
00219400
00000000
00000000
00000000
005CE400
00000000
00545B00
00000000
00000000
0044F400
000BF080
00077084
00000084
0045F400
00000208
00077085
00000085
00077084
00000086
0045F400
00000236
00077085
00000087
00077084
000000D4
0045F400
000002E2
00077085
000000D5
00077084
000000DE
0045F400
0000012D
00077085
000000DF
0005FF25
0075FF00
0065FF00
0005FF24
0074FF00
0064FF00
0005FF23
0073FF00
0063FF00
0005FF22
0072FF00
0062FF00
0045FF00
0044FF00
0055FF00
0051FF00
0053FF00
0054FF00
0050FF00
0052FF00
0000000C
00445F00
00455F00
00615F00
00055F21
0044F400
000BF080
0045F400
0000017A
00310000
0005F421
00FFFFFF
00068090
00000003
00075984
00075985
00070004
0045F400
0000014C
00070105
00070A04
0045F400
0000014C
00070B05
00077084
00000080
0045F400
0086010E
00077085
00000081
00077084
00000082
0045F400
0086010E
00077085
00000083
00077084
00000088
0045F400
00000317
00077085
00000089
00077084
0000008A
0045F400
00000358
00077085
0000008B
00077084
0000008C
0045F400
0000036D
00077085
0000008D
00077084
000000E6
0045F400
000001C7
00077085
000000E7
000A8520
0000FCB8
0005FF21
0061FF00
0045FF00
0044FF00
0000000C
00200013
00000000
0004C8A0
00000008
00000000
0004C8A1
00000008
00000000
0004C8A2
00000008
00000000
0004C8A3
00000008
00000000
0004C8A4
00000008
00000000
0004C8A5
00000008
00000000
0004C8A6
00000008
00000000
00000008
00000000
00211800
00000008
00000000
00211900
00000008
00000000
00211A00
00000008
00000000
00211B00
00000008
00000000
00211C00
00000008
00000000
00211D00
00000008
00000000
00211E00
00000008
00000000
00000008
00000000
00211000
00000008
00000000
00211100
00000008
00000000
00211200
00000008
00000000
00211300
00000008
00000000
00211400
00000008
00000000
00211500
00000008
00000000
00211600
00000008
00000000
00000008
00000000
00210400
00000008
00000000
00210500
00000008
00000000
00210600
00000008
00000000
00210700
00000008
00000000
00210900
00000008
00000000
00210D00
00000008
00000000
00210B00
00000008
00000000
00210A00
00000008
00000000
00210C00
00000008
00000000
00210800
0000000C
       1
P 860000
00050C00
      FD
P 860001
00525F00
00545F00
00505F00
000A8982
00860004
00084E0B
00445F32
000140C4
00000001
0044F400
000000DD
0002F040
000140C5
00000037
00027040
00635F00
00219300
00055F23
00735F00
00000000
000D1BC0
000AF080
008619CC
000AF080
00861A64
000AF080
00861A70
000AF080
00861ADC
000AF080
00861B72
000AF080
00861A76
000AF080
00861AD6
000AF080
00861BA7
000AF080
008623F8
000AF080
00861A5F
000AF080
00861A62
000AF080
0086254C
000AF080
00862653
000AF080
008626A1
000AF080
008626AE
000AF080
008626C0
000AF080
008626C7
000AF080
008626E6
000AF080
008626EE
000AF080
008600F6
000AF080
008626F4
000AF080
008600F6
000AF080
008600F6
000AF080
00861AAE
000AF080
008600F6
000AF080
008600F6
000AF080
008600F6
000AF080
00861A8E
00525F00
00545F00
00505F00
000A8982
00860051
00084E0B
00445F32
000140C4
00000001
0044F400
00000090
0002F040
000140C5
00000017
00027040
00635F00
00219300
00055F23
00735F00
00000000
000D1BC0
000AF080
00862705
000AF080
0086280E
000AF080
00862853
000AF080
008626FF
000AF080
00862859
000AF080
008628A7
000AF080
0086283C
000AF080
008628E2
000AF080
008628FA
000AF080
00862A48
000AF080
00862A20
000AF080
00865432
00525F00
00545F00
00505F00
000A8982
0086007E
00084E0B
00445F32
000140C4
00000001
0044F400
00000063
0002F040
000140C5
00000013
00027040
00635F00
00219300
00055F23
00735F00
00000000
000D1BC0
000AF080
00862793
000AF080
00862825
000AF080
008600F2
000AF080
008600F2
000AF080
00862886
000AF080
008628C6
000AF080
00862848
000AF080
008600F2
000AF080
00862A90
000AF080
00862A68
00525F00
00545F00
00505F00
000A8982
008600A7
00084E0B
00445F32
000140C4
00000001
0044F400
0000003A
0002F040
000140C5
0000001D
00027040
00635F00
00219300
00055F23
00735F00
00000000
000D1BC0
000AF080
00862AD4
000AF080
00862B3E
000AF080
00862B5E
000AF080
00862ACE
000AF080
00862B64
000AF080
00862BA5
000AF080
00862BB7
000AF080
00862BD0
000AF080
00862CA3
000AF080
00862CF9
000AF080
00862BF2
000AF080
00862CEA
000AF080
00862D07
000AF080
0000012D
000AF080
00862D11
00525F00
00545F00
00505F00
000A8982
008600DA
00084E0B
00445F32
000140C4
00000001
0044F400
00000007
0002F040
000140C5
00000005
00027040
00635F00
00219300
00055F23
00735F00
00000000
000D1BC0
000AF080
00862DFB
000AF080
00862F0A
000AF080
0086309D
000A8981
008600F2
0008F48D
00000010
0073FF00
0005FF23
0063FF00
0044FF00
0050FF00
0054FF00
0052FF00
00000004
    183F
P 8600FE
000A8981
008600FE
0008F0CD
00000000
000AF080
008600F6
000A8982
00860104
000870CB
00000043
000A8981
00860108
0008F48D
00000000
000AF080
008600F6
00615F00
000A8982
0086010F
0008510B
00000000
00000000
00000000
000D19C0
000D10C0
000001B2
000D10C0
0000017A
000D10C0
00000193
000D10C0
000001C7
000D10C0
000000FF
000D10C0
00000133
000D10C0
00000156
000D10C0
00000004
000D10C0
000001C4
000A8981
00860128
0008C40D
00000000
00000000
000A8981
0086012D
0008C50D
00000000
00000000
000A8981
00860132
0008C60D
00000000
00000000
000A8981
00860137
0008C70D
00000000
00000000
000A8981
0086013C
0008CA0D
00000000
00000000
000A8981
00860141
0008CC0D
00000000
00000000
000A8981
00860146
0008C80D
00000000
00000000
000A8981
0086014B
0008CB0D
00000000
00000000
000A8981
00860150
0008CD0D
00000000
00000000
000A8981
00860155
0008C90D
00000000
00000000
000A8981
0086015A
0008D70D
00000000
00000000
000A8981
0086015F
0008D60D
00000000
00000000
000A8981
00860164
0008D50D
00000000
00000000
000A8981
00860169
0008D40D
00000000
00000000
000A8981
0086016E
0008D30D
00000000
00000000
000A8981
00860173
0008D20D
00000000
00000000
000A8981
00860178
0008D10D
00000000
00000000
0061FF00
000A8981
0086017E
0008D00D
00000000
00000000
000A8981
00860183
0008DF0D
00000000
00000000
000A8981
00860188
0008DE0D
00000000
00000000
000A8981
0086018D
0008DD0D
00000000
00000000
000A8981
00860192
0008DC0D
00000000
00000000
000A8981
00860197
0008DB0D
00000000
00000000
000A8981
0086019C
0008DA0D
00000000
00000000
000A8981
008601A1
0008D90D
00000000
00000000
000A8981
008601A6
0008D80D
00000000
00000000
000A8981
008601AB
0008E70D
00000000
00000000
000A8981
008601B0
0008E60D
00000000
00000000
000A8981
008601B5
0008E50D
00000000
00000000
000A8981
008601BA
0008E40D
00000000
00000000
000A8981
008601BF
0008E30D
00000000
00000000
000A8981
008601C4
0008E20D
00000000
00000000
000A8981
008601C9
0008E10D
00000000
00000000
000A8981
008601CE
0008E00D
00000000
00000000
00445F00
000444AA
000A8981
008601D5
0008C40D
00000000
00000000
000444B0
000A8981
008601DB
0008C40D
00000000
00000000
000444B1
000A8981
008601E1
0008C40D
00000000
00000000
000444B8
000A8981
008601E7
0008C40D
00000000
00000000
000444B9
000A8981
008601ED
0008C40D
00000000
00000000
000444BA
000A8981
008601F3
0008C40D
00000000
00000000
000444BB
000A8981
008601F9
0008C40D
00000000
00000000
000A8981
008601FE
0008F48D
00000000
00000000
00000000
000A8981
00860204
0008F48D
00000000
00000000
00000000
000444BE
000A8981
0086020B
0008C40D
00000000
00000000
000444BF
000A8981
00860211
0008C40D
00000000
00000000
000A8981
00860216
0008F48D
00000000
0044FF00
000D10C0
000000CF
00055F21
00445F00
00515F00
00555F00
00535F00
0020001B
0005F421
00FFFFFF
000A8982
00860225
0008510B
000A8982
00860228
0008440B
0006C410
0000001B
00222F00
0044F400
00FFFFCB
0020004D
000D104A
00000011
0044F400
00FFFFCC
0020004D
000D104A
0000000C
0044F400
00FFFFCD
0020004D
000D104A
00000007
000A8981
0086023D
0008D98D
000D10C0
00000006
000A8981
00860242
0008D10D
00205900
00000000
000A8981
00860247
0008F48D
00000000
0053FF00
0055FF00
0051FF00
0044FF00
0005FF21
0061FF00
000D10C0
00000099
00055F21
00445F00
0005F421
00FFFFFF
00515F00
00555F00
00535F00
000A8982
0086025A
0008510B
000A8982
0086025D
0008440B
0006C410
0000000B
000A8981
00860262
0008D9CD
000D10C0
00000006
000A8981
00860267
0008D10D
00205900
00000000
000A8981
0086026C
0008F48D
00000000
0053FF00
0055FF00
0051FF00
0044FF00
0005FF21
0061FF00
000D10C0
00000074
00055F21
00445F00
0005F421
00FFFFFF
000A8982
0086027C
0008510B
000A8982
0086027F
0008440B
0006C410
00000006
0007D984
000A8981
00860285
0008C40D
00000000
000A8981
00860289
0008F48D
00000000
0044FF00
0005FF21
0061FF00
000D10C0
0000005A
00055F21
00445F00
0005F421
00FFFFFF
000A8982
00860296
0008510B
000A8982
00860299
0008440B
00000000
0006C410
00000006
00000000
000A8982
008602A0
0008598B
00000000
000A8981
008602A4
0008F48D
00000000
0044FF00
0005FF21
0061FF00
000D10C0
0000003F
00055F21
00445F00
0005F421
00FFFFFF
000A8982
008602B1
0008510B
000A8982
008602B4
0008440B
00000000
0006C410
00000006
00000000
000A8982
008602BB
000859CB
00000000
000A8981
008602BF
0008F48D
00000000
0044FF00
0005FF21
0061FF00
000D10C0
00000024
00055F21
00445F00
0005F421
00FFFFFF
000A8982
008602CC
0008510B
000A8982
008602CF
0008440B
00000000
0006C410
00000006
00000000
000A8982
008602D6
0008440B
00075984
000A8981
008602DA
0008F48D
00000000
0044FF00
0005FF21
0061FF00
000D10C0
00000009
000A8982
008602E3
0008540B
000A8981
008602E6
0008F48D
00000000
00000004
000A8982
008602EB
0008440B
004C3F00
000ABF06
000ABF07
000CC480
000000CF
000CC4B6
00000004
000CC4B7
000000B3
000A0F6E
0001014E
00010142
000C8FCA
000000AA
000C8FF1
0000004D
0005F423
00FFFFFF
006BAB13
0073F400
0000001F
00000000
00000000
00000000
0007EB8C
000140C6
00FFC0FF
000140C2
00001500
00000000
00076B8C
006BAC13
0073F400
00000018
00000000
00000000
00000000
0007EB8C
000140C6
00FFC0FF
000140C2
00001500
00000000
00076B8C
006BB113
0073F400
00000013
00000000
00000000
00000000
0007EB8C
000140C6
00FFC0FF
000140C2
00001500
00000000
00076B8C
006BF013
0000006A
0073F400
0000001E
00000000
00000000
00000000
0007EB8C
000140C6
00FFC0FF
000140C2
00001500
00000000
00076B8C
005E8400
00200003
000D104A
00000010
006BF013
0000006D
0073F400
0000003E
00000000
00000000
00000000
0007EB8C
000140C6
00FFC0FF
000140C2
00001500
00000000
00076B8C
000D10C0
0000004C
0005F423
00FFFFFF
006BAB13
0073F400
00000034
00000000
00000000
00000000
0007EB8C
000140C6
00FFC0FF
000140C2
00001500
00000000
00076B8C
006BAC13
0073F400
00000025
00000000
00000000
00000000
0007EB8C
000140C6
00FFC0FF
000140C2
00001500
00000000
00076B8C
006BB113
0073F400
00000013
00000000
00000000
00000000
0007EB8C
000140C6
00FFC0FF
000140C2
00001500
00000000
00076B8C
006BF013
0000006A
0073F400
0000001E
00000000
00000000
00000000
0007EB8C
000140C6
00FFC0FF
000140C2
00001500
00000000
00076B8C
005E8400
00200003
000D104A
00000010
006BF013
0000006D
0073F400
0000003E
00000000
00000000
00000000
0007EB8C
000140C6
00FFC0FF
000140C2
00001500
00000000
00076B8C
00011740
0007AC04
0007AD0E
000140C4
00000002
00071404
0007150C
005EAB00
000140C4
00000002
00000000
005C2B00
005EAC00
000140C4
00000002
00000000
005C2C00
00050C01
004CBF00
000CC4B6
00000003
00050C5A
004CBF00
000CC4B6
0000000D
000A0F6D
0054F400
000BF080
00000000
0007140C
00000000
0054F400
008603E7
00000000
0007150C
00050C0B
000A0F6D
0054F400
000BF080
00000000
0007160C
00000000
0054F400
008603E7
00000000
0007170C
004CBF00
000CC481
00000011
000CC4B7
00000008
000A1336
0007A804
00071404
0007A904
00071504
00050C08
000A1335
0044F400
000BF080
00071404
0044F400
008603E7
00071504
004CBF00
000CC482
0000000E
000CC4B7
00000005
00000000
00000000
00050C08
000A1C35
0044F400
000BF080
00071404
0044F400
008603E7
00071504
000A8981
008603E1
0008F48D
00000000
000AF080
008600F6
00014041
000CBFF6
00000012
000ABF06
000ABF07
000ABF08
00010142
000CBFC0
00000019
000C8FEA
00000007
0007F407
00000A11
00011760
000D10C0
00000012
0007F407
00000A15
00011740
00013852
000ABF09
000ABF0A
000ABF0B
000C8FCA
00000007
000ABF07
000ABF26
000ABF28
00010162
00050C03
00011760
00013870
000CBFC1
00000004
0007F40B
00000A15
000CBFC2
0000000C
0001016E
00010142
00044E8D
00200022
00000000
0004CC8C
0007F40F
00000A15
000AF080
0000018D
00000004
00605F00
00705F00
00055F20
00615F00
00715F00
00055F21
00625F00
00725F00
00055F22
00645F00
00745F00
00055F24
00655F00
00755F00
00055F25
00665F00
00765F00
00055F26
00535F00
00515F00
00555F00
00445F00
00455F00
00465F00
00475F00
0044F000
00000048
00445F00
0044F000
00000049
00445F00
0005F420
00FFFFFF
000461A0
000462A0
000464A0
000465A0
000466A0
00240000
00447000
00000048
00447000
00000049
006BF000
0000004F
0005F423
00FFFFFF
0073F400
00000006
00000000
00000000
00000000
000A73D3
00000005
00200013
0044F400
00000001
00260000
004DF000
0000004B
0006C510
0000000B
0056CB00
002A0000
00280000
000140C6
00700000
00200003
0020CE00
00202240
00000000
0021C600
004E7000
00000048
005EF000
0000004B
004EF000
00000048
00200054
00000000
0021C400
004C7000
00000049
00011741
000A0F4A
000A0F51
0044F000
0000006C
005EF000
00000048
000C8FC8
00000003
000A0F6A
000CC4A2
00000003
000A0F6A
000CC4A0
00000003
000A0F6A
005E8403
000D104A
00000003
000A0F6A
005EF003
0000004B
000D104A
00000003
000A0F6A
004CF000
00000049
00014085
000D104A
0000095F
000A7037
00000048
00048156
00000003
000A0F71
000C8FCA
00000008
000481D6
00000EA4
000481F6
00000F0A
000D10C0
00000004
000D1080
00000F6E
00014085
0005A405
000A7037
00000049
000D10C0
0000094A
000A7036
00000048
000A7035
00000048
005EF000
000000B0
00014184
000C1EC2
00061790
00000007
00014085
000444BF
0000021A
00000000
000C1EC2
00000000
0056F400
00000018
00200044
00000000
005C7000
000000B0
000C8FCA
00000600
00200013
004CF000
0000004B
005EF000
00000051
00200026
00000000
0021C800
002C0000
00200032
000618A0
00018040
00000000
00210E00
000140C6
00FFFFFE
00200023
00000000
00200003
00052404
0056F400
00000001
00000000
005E2900
005E2A00
0021C600
002000D0
00000000
00210E00
000140C4
00000001
00000000
005C1300
004CF000
000000B0
0056F400
00000001
000C1E18
00200026
00000000
0021C800
002C0000
00200032
000618A0
00018050
00000000
00210E00
000140C6
00FFFFFE
00000000
0021C400
002000D0
00000000
00210E00
00200023
00000000
005E1F00
000140C4
00000001
00000000
005E2000
005EA000
000C1EC2
00061790
00000007
00014085
000444BF
0000021A
00000000
000C1EC2
00000000
0056F400
00000018
00200044
00000000
0021C400
0005F423
00FFFFFF
0047F000
00000405
0020001B
0063F400
00000407
0057F400
00000001
000C1E19
003B0600
0021E500
0057F000
00000400
0006CF10
0000001F
0020001B
0002139D
00000000
000CCDAA
0000001A
00014F8E
0020004D
000D1041
00000016
000213DF
0020007D
000D1047
00000003
0021E700
00200068
00000000
000213CF
0002139F
00000000
000CCF8B
0000000A
000203DF
00200068
00000000
000203CF
0002039F
00200068
00000000
0002038F
00204B00
0020BB00
00000000
0020AF00
00000000
00020BCF
0001418C
000203C7
00020387
00020B8F
00208F00
000140CA
00000860
000213C7
0002138D
0057F000
00000405
0020007C
00014188
00226700
0063F000
00000405
0006CD10
00000004
0045E300
00456B00
00205300
00236F00
0045F000
00000405
00200068
00000000
00577000
00000405
0051F000
00000400
00000009
0020F300
00517000
00000400
006B7000
00000058
005EF000
0000004B
00014184
00000000
0006CC10
00000056
0005F423
00FFFFFF
0047F000
00000405
0020001B
0063F400
00000407
0057F400
00000001
000C1E19
003B0600
0021E500
0057F000
00000400
0006CF10
0000001F
0020001B
0002139D
00000000
000CCDAA
0000001A
00014F8E
0020004D
000D1041
00000016
000213DF
0020007D
000D1047
00000003
0021E700
00200068
00000000
000213CF
0002139F
00000000
000CCF8B
0000000A
000203DF
00200068
00000000
000203CF
0002039F
00200068
00000000
0002038F
00204B00
0020BB00
00000000
0020AF00
00000000
00020BCF
0001418C
000203C7
00020387
00020B8F
00208F00
000140CA
00000860
000213C7
0002138D
0057F000
00000405
0020007C
00014188
00226700
0063F000
00000405
0006CD10
00000004
0045E300
00456B00
00205300
00236F00
0045F000
00000405
00200068
00000000
00577000
00000405
0051F000
00000400
00000009
0020F300
00517000
00000400
005CF000
00000051
00014184
00000000
000C1EC2
00061790
00000007
00014085
000444BF
0000021A
00000000
000C1EC2
00000000
0056F400
00000018
00200044
00000000
0021C400
0005F423
00FFFFFF
004FF000
00000305
00200013
0063F400
00000307
0056F400
00000001
000C1E18
003B0600
0021C500
005EF000
00000300
0006CE10
0000001F
00200013
000213BC
00000000
000CCCAA
0000001A
00014F86
00200045
000D1041
00000016
000213FE
00200075
000D1047
00000003
0021C700
00200060
00000000
000213EE
000213BE
00000000
000CCE8B
0000000A
000203FE
00200060
00000000
000203EE
000203BE
00200060
00000000
000203AE
00204B00
0020BB00
00000000
0020AE00
00000000
00020BEE
00014184
000203E7
000203A7
00020BAE
00208E00
000140C2
00000860
000213E7
000213AC
005EF000
00000305
00200074
00014180
00226700
006BF000
00000305
0006CC10
00000004
0045E300
00456B00
00205300
00236E00
004DF000
00000305
00200060
00000000
005E7000
00000305
0058F000
00000300
00000008
0020F300
00587000
00000300
006B7000
0000004E
00048176
0000021A
006BF000
0000004F
0005F423
00FFFFFF
0073F400
00000006
00000000
00000000
00000000
000A73D3
00000005
00200013
0044F400
00000001
00260000
004DF000
0000004B
0006C510
0000000B
0056CB00
002A0000
00280000
000140C6
00700000
00200003
0020CE00
00202240
00000000
0021C600
004E7000
00000048
005EF000
0000004B
004EF000
00000048
00200054
00000000
0021C400
004C7000
00000049
004CF000
00000049
000141C0
00000006
00210E00
00200023
000140C4
00000001
00000000
005E1100
0004CEA5
000C1EC2
00061790
00000007
00014085
000444BF
0000021A
00000000
000C1EC2
00000000
0056F400
00000018
00200044
00000000
0021C400
0005F423
00FFFFFF
004FF000
00000306
00200013
0063F400
00000307
0056F400
00000001
000C1E18
003B0600
0021C500
005EF000
00000300
0006CE10
0000001F
00200013
000213BC
00000000
000CCC8A
0000001A
00014F86
00200045
000D1041
00000016
000213FE
00200075
000D1047
00000003
0021C700
00200060
00000000
000213EE
000213BE
00000000
000CCE8B
0000000A
000203FE
00200060
00000000
000203EE
000203BE
00200060
00000000
000203AE
00204B00
0020BB00
00000000
0020AE00
00000000
00020BEE
000140C4
00000001
000203E7
000203A7
00020BAC
00200013
00208E00
000140C2
00000C60
000213E7
000213AC
00200013
00000000
005EF000
00000306
00200074
00014180
00226700
006BF000
00000306
0006CC10
00000004
004DE300
004D6B00
00205300
00236E00
004DF000
00000306
00200060
0020F300
00000000
005E7000
00000306
0058F000
00000300
00000008
00000000
00000000
00587000
00000300
006B7000
0000004D
000B73D5
00000005
006CF000
0000004F
0073F400
00000006
0005F424
00FFFFFF
00000000
00000000
00000000
000A74D3
00000005
004DF000
0000004B
004D7000
0000004C
000141E0
00000003
0000000A
00000000
0004C8A3
00000000
004CF000
00000049
0006C410
0000010F
0075F400
00000005
00000000
00000000
0045E300
000213D7
00204D00
004D5D00
0056F400
00000001
000C1E1E
000140C4
00000001
00000000
005E5D00
0021C500
0020EE00
000140C4
00000018
004FF000
00000047
00200070
00200036
000140C6
0000000F
000140C2
00000040
00000000
0021C600
00021397
000606A0
00205D00
004E5D00
00268000
004E5D00
004D5D00
004F5D00
00270000
0045E300
00200061
000140C6
00800000
000AF0A2
00860706
00268000
0003FDA6
00204B00
0045E300
00200061
000140C6
00700000
000AF0AA
008607E2
0005F424
00FFFFFF
006CF000
000003F7
00000000
00000000
00000000
00205C00
00200061
000C1EE6
00000000
000ACC60
00000000
00219200
00200071
000140C0
00000001
00000000
00218700
000D1AC0
00000000
00000000
000D10C0
00000008
000D10C0
00000017
000D10C0
00000027
000D10C0
00000039
004EF000
00000062
004E5C00
0056F400
00000038
000BF080
008636F4
005C5C00
00200061
000140C6
0000001F
000140C2
00001000
00000000
005C5C00
000AF080
008607CF
004EF000
00000063
004E5C00
0056F400
00000038
000BF080
008636F4
005C5C00
00200061
000140C6
00000003
000C1D06
000140C2
00008000
00000000
005C5C00
000AF080
008607CF
004EF000
00000064
004E5C00
0056F400
00000038
000BF080
008636F4
005C5C00
00200061
000140C6
00000001
0046F403
00010000
000D104A
00000004
0046F400
00010008
004E5C00
000AF080
008607CF
004EF000
00000065
004E5C00
0020AE00
000140C6
000FFFFF
00000000
00218500
0056F000
00000055
0046F000
00000054
00200055
00202951
00014184
00200065
00202161
00000000
000CC593
00000008
0056F400
00000050
00014384
00000000
000D10C0
0000004E
000140C6
0000000F
00000000
0021C600
000141D0
00000004
00200022
00000008
00000000
00211200
00000000
00000000
00000000
000D1AC0
0056F400
00000050
000D10C0
0000003C
0056F400
00000052
000D10C0
00000038
0056F400
00000054
000D10C0
00000034
0056F400
00000056
000D10C0
00000030
0056F400
00000058
000D10C0
0000002C
0056F400
0000005A
000D10C0
00000028
0056F400
0000005C
000D10C0
00000024
0056F400
0000005E
000D10C0
00000020
0056F400
00000060
000D10C0
0000001C
0056F400
00000062
000D10C0
00000018
0056F400
00000064
000D10C0
00000014
0056F400
00000066
000D10C0
00000010
0056F400
00000068
000D10C0
0000000C
0056F400
0000006A
000D10C0
00000008
0056F400
0000006C
000D10C0
00000004
0056F400
0000006E
000BF080
008636F4
005C5C13
00000000
005C5C00
000D10C0
00000002
00204B00
0045E300
00200061
000140C6
00700000
000AF0A2
00860715
00228600
006CF000
000003F7
004E7000
000003F7
00205500
00205500
004F6400
00205500
006C5D00
00205D00
00205D00
00205D00
00060CA0
00205500
00000000
000607A0
00205D00
000A5D6B
0005F423
00FFFFFF
006BF000
0000004D
00059165
00000000
00000000
000B73D5
00000005
004CF000
00000049
0006C410
00000035
005EDD00
004FDD00
00205D00
00205D00
004ED500
000CC6B7
00000004
000D10C0
00000016
000CC7AB
0000000F
00200003
000D104A
00000007
004CF000
00000069
004C5D00
000D10C0
00000021
004CF000
00000068
004C5D00
000D10C0
0000001C
004CF000
0000006A
004C5D00
000D10C0
00000017
000CC7AB
00000011
00200003
000D104A
00000008
004CF000
0000006C
004C5D00
000A6556
000D10C0
0000000C
004CF000
0000006B
004C5D00
000A6556
000D10C0
00000006
004CF000
0000006D
004C5D00
000A6556
00205D00
00205D00
006BF000
0000004F
0005F423
00FFFFFF
004DF000
0000004B
000141E0
00000003
0000000A
00000000
00020B8E
000D10C0
000001EC
006BF000
0000004F
0005F423
00FFFFFF
0073F400
00000006
00000000
00000000
00000000
000A73D3
00000005
00200013
0044F400
00000001
00260000
004DF000
0000004B
0006C510
0000000B
0056CB00
002A0000
00280000
000140C6
00700000
00200003
0020CE00
00202240
00000000
0021C600
004E7000
00000048
005EF000
0000004B
004EF000
00000048
00200054
00000000
0021C400
004C7000
00000049
004CF000
00000049
000141C0
00000008
00210E00
00200023
000140C4
00000001
00000000
005E1100
0004CEA5
000C1EC2
00061790
00000007
00014085
000444BF
0000021A
00000000
000C1EC2
00000000
0056F400
00000018
00200044
00000000
0021C400
0005F423
00FFFFFF
004FF000
00000306
00200013
0063F400
00000307
0056F400
00000001
000C1E18
003B0600
0021C500
005EF000
00000300
0006CE10
0000001F
00200013
000213BC
00000000
000CCC8A
0000001A
00014F86
00200045
000D1041
00000016
000213FE
00200075
000D1047
00000003
0021C700
00200060
00000000
000213EE
000213BE
00000000
000CCE8B
0000000A
000203FE
00200060
00000000
000203EE
000203BE
00200060
00000000
000203AE
00204B00
0020BB00
00000000
0020AE00
00000000
00020BEE
000140C4
00000001
000203E7
000203A7
00020BAC
00200013
00208E00
000140C2
00000C60
000213E7
000213AC
00200013
00000000
005EF000
00000306
00200074
00014180
00226700
006BF000
00000306
0006CC10
00000004
004DE300
004D6B00
00205300
00236E00
004DF000
00000306
00200060
0020F300
00000000
005E7000
00000306
0058F000
00000300
00000008
00000000
00000000
00587000
00000300
006B7000
0000004D
000B73D5
00000005
006CF000
0000004F
0005F424
00FFFFFF
0073F400
00000006
004DF000
0000004B
004D7000
0000004C
000141E0
00000003
0000000A
000A74D3
00000005
0004C8A3
00000000
004DF000
00000049
0006C510
00000126
0075F400
00000007
00000000
00000000
000213D7
0045E300
00204D00
004D5D00
0056F400
00000001
000C1E1E
00000000
005E5D00
0021C500
0020EE00
000140C4
00000018
004FF000
00000047
00200070
00200036
000140C6
0000000F
000140C2
00000040
00000000
0021C600
00021394
000608A0
00205D00
0062F400
00800000
000CC4B7
00000004
000D10C0
0000000F
004E5D00
006A5D00
004EF000
00000068
004E5D00
004EF000
00000069
004E5D00
004EF000
0000006A
004E5D00
000D10C0
0000000E
000AC456
004E5D00
006A5D00
004EF000
0000006B
004E5D00
004EF000
0000006C
004E5D00
004EF000
0000006D
004E5D00
00270000
0045E300
00200061
000140C6
00800000
000AF0A2
00860932
00268000
0003F5A6
00204B00
0045E300
00200061
000140C6
00700000
000AF0AA
00860A0C
0005F424
00FFFFFF
006CF000
000003F7
00000000
00000000
00000000
00205C00
00200061
000C1EE6
00000000
000ACC60
00000000
00219200
00200071
000140C0
00000001
00000000
00218700
000D1AC0
00000000
00000000
000D10C0
00000008
000D10C0
00000017
000D10C0
00000027
000D10C0
00000039
004EF000
00000062
004E5C00
0056F400
00000038
000BF080
008636F4
005C5C00
00200061
000140C6
0000001F
000140C2
00001000
00000000
005C5C00
000AF080
008609F7
004EF000
00000063
004E5C00
0056F400
00000038
000BF080
008636F4
005C5C00
00200061
000140C6
00000003
000C1D06
000140C2
00008000
00000000
005C5C00
000AF080
008609F7
004EF000
00000064
004E5C00
0056F400
00000038
000BF080
008636F4
005C5C00
00200061
000140C6
00000001
0046F403
00010000
000D104A
00000004
0046F400
00010008
004E5C00
000AF080
008609F7
004EF000
00000065
004E5C00
0056F000
00000055
0046F000
00000054
0020AF55
00000000
000CC593
00000009
0056F400
00000050
00000000
00014384
00000000
000D10C0
00000053
000140CE
0000001F
00202951
00014184
0021AF00
00200005
00202161
00000000
0021C600
000141D0
00000004
00200022
00000008
00000000
00211200
00000000
00000000
00000000
000D1AC0
0056F400
00000050
000D10C0
0000003C
0056F400
00000052
000D10C0
00000038
0056F400
00000054
000D10C0
00000034
0056F400
00000056
000D10C0
00000030
0056F400
00000058
000D10C0
0000002C
0056F400
0000005A
000D10C0
00000028
0056F400
0000005C
000D10C0
00000024
0056F400
0000005E
000D10C0
00000020
0056F400
00000060
000D10C0
0000001C
0056F400
00000062
000D10C0
00000018
0056F400
00000064
000D10C0
00000014
0056F400
00000066
000D10C0
00000010
0056F400
00000068
000D10C0
0000000C
0056F400
0000006A
000D10C0
00000008
0056F400
0000006C
000D10C0
00000004
0056F400
0000006E
000BF080
008636F4
00000000
005C5C13
00000000
005C5C00
00204B00
0045E300
00200061
000140C6
00F00000
000AF0A2
00860941
00228600
006CF000
000003F7
004E7000
000003F7
00205500
00205500
00205500
004F6400
00205500
006C5D00
00205D00
00205D00
00205D00
004C5D00
00205D00
000610A0
00205500
00000000
000609A0
00205D00
000A5D6B
006BF000
0000004F
0005F423
00FFFFFF
004DF000
0000004B
004D7000
0000004C
000141E0
00000003
0000000A
00000000
00020B8E
004E8400
00200051
00200003
000D104A
00000008
0050F400
00000042
0054F400
0000005C
000D1080
00002DA4
000CC697
00000074
0044F400
00000007
0056F400
00000001
000C1E48
0045F400
00000006
00200026
00000000
0021C800
002C0000
00200032
000618A0
00018060
00000000
00210E00
00000000
00218400
002000A0
0044F422
00000007
00000000
00580700
0000000A
00000000
00580600
0005F423
00FFFFFF
004FF000
00000305
00200013
0063F400
00000307
0056F400
00000001
000C1E18
003B0600
0021C500
005EF000
00000300
0006CE10
0000001F
00200013
000213BC
00000000
000CCCAA
0000001A
00014F86
00200045
000D1041
00000016
000213FE
00200075
000D1047
00000003
0021C700
00200060
00000000
000213EE
000213BE
00000000
000CCE8B
0000000A
000203FE
00200060
00000000
000203EE
000203BE
00200060
00000000
000203AE
00204B00
0020BB00
00000000
0020AE00
00000000
00020BEE
00014184
000203E7
000203A7
00020BAE
00208E00
000140C2
00000860
000213E7
000213AC
005EF000
00000305
00200074
00014180
00226700
006BF000
00000305
0006CC10
00000004
0045E300
00456B00
00205300
00236E00
004DF000
00000305
00200060
00000000
005E7000
00000305
0058F000
00000300
00000008
0020F300
00587000
00000300
006B7000
00000053
004E8400
000CC691
00000003
004E8400
000CC690
00000003
004E8400
000CC68F
00000003
004E8400
000CC695
00000003
004E8400
000CC687
00000003
004E8400
000CC689
00000003
004E8400
000D10C0
0000020C
0063F000
000000DD
00000000
000A0F51
000CA356
00000003
000A0F71
0005F423
00FFFFFF
006BF000
000003F7
0056F400
00000800
00226400
00248044
00000000
0006CC20
004C5B00
006CF000
0000004F
0005F424
00FFFFFF
00000000
00000000
00000000
000214D6
000A74E4
00000002
0074F400
00000006
0020D400
006BF000
000003F7
0005F423
00FFFFFF
006B1800
00204C00
00205400
004CF000
0000004B
004C5B00
0006C410
0000000B
0003ECD4
0046CC00
0056F400
00000001
000C1E4A
00000000
0006CC20
004C5B00
00000000
00000000
006B7000
000003F7
00226E00
004E9800
0020D354
00014184
00000000
00000000
005E5B00
006BF000
000003F7
0056F400
00000800
00226400
00248044
00000000
0006CC20
004C5B00
006CF000
0000004F
0005F424
00FFFFFF
00000000
00000000
00000000
000214D6
000A74E4
00000002
0074F400
00000006
0020D400
006BF000
000003F7
0005F423
00FFFFFF
00204C00
00205400
006B1900
00205B00
00205B00
004CF000
0000004B
0006C410
0000000C
0046CC00
0056F400
00000001
000C1E4A
00014184
004E9600
0006CE10
00000002
004E5B00
004E9700
004E5B00
006B7000
000003F7
00226E00
004C9900
00209344
000140C4
00000002
00000000
00218500
0056F400
00000078
00200026
00000000
0021C800
002C0000
00200032
000618A0
00018060
00000000
00210E00
00000000
005C5B00
004D5B00
0005F422
00FFFFFF
006AF000
0000004F
000464A2
00000000
00000000
000A72D2
00000005
0072F400
00000006
006CF000
000003F7
004CF000
0000004B
006C1B00
0006C410
0000000D
0056F400
00000800
000C8FD1
00000003
000C1C08
000212D4
000C1E68
00021294
00204A00
005C5C00
00000000
00000000
006C7000
000003F7
00200013
004CF000
0000004B
005EF000
00000051
00200026
00000000
0021C800
002C0000
00200032
000618A0
00018040
00000000
00210E00
000140C6
00FFFFFE
00200023
00000000
00200003
00052404
0056F400
00000001
00000000
005E2900
005E2A00
0021C600
002000D0
00000000
00210E00
000140C4
00000001
00000000
005C1300
004CF000
000000B0
0056F400
00000001
000C1E18
00200026
00000000
0021C800
002C0000
00200032
000618A0
00018050
00000000
00210E00
000140C6
00FFFFFE
00000000
0021C400
002000D0
00000000
00210E00
00200023
00000000
005E1F00
000140C4
00000001
00000000
005E2000
005EA000
000C1EC2
00061790
00000007
00014085
000444BF
0000021A
00000000
000C1EC2
00000000
0056F400
00000018
00200044
00000000
0021C400
0005F423
00FFFFFF
0047F000
00000405
0020001B
0063F400
00000407
0057F400
00000001
000C1E19
003B0600
0021E500
0057F000
00000400
0006CF10
0000001F
0020001B
0002139D
00000000
000CCDAA
0000001A
00014F8E
0020004D
000D1041
00000016
000213DF
0020007D
000D1047
00000003
0021E700
00200068
00000000
000213CF
0002139F
00000000
000CCF8B
0000000A
000203DF
00200068
00000000
000203CF
0002039F
00200068
00000000
0002038F
00204B00
0020BB00
00000000
0020AF00
00000000
00020BCF
0001418C
000203C7
00020387
00020B8F
00208F00
000140CA
00000860
000213C7
0002138D
0057F000
00000405
0020007C
00014188
00226700
0063F000
00000405
0006CD10
00000004
0045E300
00456B00
00205300
00236F00
0045F000
00000405
00200068
00000000
00577000
00000405
0051F000
00000400
00000009
0020F300
00517000
00000400
006B7000
00000058
005EF000
0000004B
00014184
00000000
0006CC10
00000056
0005F423
00FFFFFF
0047F000
00000405
0020001B
0063F400
00000407
0057F400
00000001
000C1E19
003B0600
0021E500
0057F000
00000400
0006CF10
0000001F
0020001B
0002139D
00000000
000CCDAA
0000001A
00014F8E
0020004D
000D1041
00000016
000213DF
0020007D
000D1047
00000003
0021E700
00200068
00000000
000213CF
0002139F
00000000
000CCF8B
0000000A
000203DF
00200068
00000000
000203CF
0002039F
00200068
00000000
0002038F
00204B00
0020BB00
00000000
0020AF00
00000000
00020BCF
0001418C
000203C7
00020387
00020B8F
00208F00
000140CA
00000860
000213C7
0002138D
0057F000
00000405
0020007C
00014188
00226700
0063F000
00000405
0006CD10
00000004
0045E300
00456B00
00205300
00236F00
0045F000
00000405
00200068
00000000
00577000
00000405
0051F000
00000400
00000009
0020F300
00517000
00000400
005CF000
00000051
00014184
00000000
000C1EC2
00061790
00000007
00014085
000444BF
0000021A
00000000
000C1EC2
00000000
0056F400
00000018
00200044
00000000
0021C400
0005F423
00FFFFFF
004FF000
00000305
00200013
0063F400
00000307
0056F400
00000001
000C1E18
003B0600
0021C500
005EF000
00000300
0006CE10
0000001F
00200013
000213BC
00000000
000CCCAA
0000001A
00014F86
00200045
000D1041
00000016
000213FE
00200075
000D1047
00000003
0021C700
00200060
00000000
000213EE
000213BE
00000000
000CCE8B
0000000A
000203FE
00200060
00000000
000203EE
000203BE
00200060
00000000
000203AE
00204B00
0020BB00
00000000
0020AE00
00000000
00020BEE
00014184
000203E7
000203A7
00020BAE
00208E00
000140C2
00000860
000213E7
000213AC
005EF000
00000305
00200074
00014180
00226700
006BF000
00000305
0006CC10
00000004
0045E300
00456B00
00205300
00236E00
004DF000
00000305
00200060
00000000
005E7000
00000305
0058F000
00000300
00000008
0020F300
00587000
00000300
006B7000
0000004E
005EF000
000000A0
000A0F4B
006EF003
000000A1
000D104A
000000B0
0054F400
00000032
0050F400
00000042
000BF080
008637CE
00200003
0054F400
00000034
0050F400
00000042
000BF080
008637CE
00200003
000ABF12
000ABF13
000C8FE6
00000006
0054F400
00000036
000D10C0
00000005
000ABF32
0054F400
00000036
0050F400
00000042
000BF080
008637CE
00200003
000A0F6B
0005F422
00FFFFFF
006CF000
000003F7
000464A2
000465A2
006C3B00
000A76D2
00000001
005EF000
000000A0
005E5C00
0006CE10
0000007C
0056E200
00250003
000AF0AA
00860CF7
000AC574
004D5C00
00020A94
000CC4B7
0000002B
0046DA00
0044F451
0000001A
005EF003
000000A2
00202244
00270000
005E5C13
0058B300
00200034
00000000
005A5C00
005C5C00
00585C00
004E5C13
00205C00
0054DA00
0044F400
00000000
000ACC57
00205A00
000ACC56
00202840
00250000
005E5C00
004D5C00
0045DA00
0044DA00
004C5C00
000CC580
0000003D
00200051
005EF003
000000A4
0044F400
0000001A
00202244
00000000
0003DCEE
000D10C0
00000033
0046DA00
0044F451
0000001A
005EF003
000000A3
00202244
00270000
005E5C13
0058B300
00200034
00000000
005A5C00
005C5C00
00585C00
004E5C13
00205C00
0054DA00
0044F400
00000000
000ACC57
00000000
000ACC56
00202840
00000000
005E5C00
00200013
0054DA00
00000000
000ACC57
00000000
000ACC56
0044F400
00000000
00202840
00000000
005E5C00
0045DA00
0044DA00
004C5C00
000CC580
0000000A
00200051
005EF003
000000A5
0044F400
0000001A
00202244
00000000
0003DCEE
000A7692
00000001
00200051
004CB203
0056F400
00000001
00200040
00000000
0021C400
000BF080
0086354E
006B5C00
000A76D2
00000001
00000000
000465A4
0075DA00
0065F400
000000AA
00000000
00000000
00000000
004CED00
004C5C00
006C7000
000003F7
004CF000
000000AF
00447000
00000050
006BF000
0000004F
0005F423
00FFFFFF
000A0FEA
00860DDA
000213D4
000A73E3
00000002
0073F400
00000006
00209300
004CF013
0000004B
0006C410
00000006
000213D4
0057F400
00000001
000C1E19
00204B10
004CF000
0000004B
00200045
000AF0A2
00860DDA
006C9900
0005F424
00FFFFFF
00000000
00000000
000463A4
000204FE
00014285
000AF0AA
00860D9C
00014185
000AF0AA
00860DBE
000AF080
00860DDA
0044F400
000000B9
0007910E
00200040
00000000
00219300
0073F400
00000017
00000000
00000000
004CE400
00076B84
0073F400
00000023
0044F400
00001000
0056F400
00000100
000B0F71
00020040
00000000
00076B8E
0073F400
0000002A
0044F400
00FFFF93
00000000
00076B84
0073F400
0000002C
00071113
00076B84
000AF080
00860DDA
0044F400
0000007C
0007910E
00200040
00000000
00219300
0073F400
00000013
00000000
00000000
004CE400
00076B84
0073F400
00000019
0044F400
00001000
0056F400
00000100
000B0F71
00020040
00000000
00076B8E
0073F400
00000021
0044F400
00FFFF93
00071113
00076B84
000BF080
0086142E
0020000B
0005A403
000A7036
00000049
000BF080
0086143E
0020000B
0005A403
000A7035
00000049
000BF080
0086146B
00569800
00014085
0005A494
000A702F
00000048
00200013
000C9B97
00000005
0054F400
00000028
00050C03
0054F400
00000027
0050F400
00000042
000BF080
008637CE
00014085
0005240A
00200013
0054F400
00000029
0050F400
00000042
000BF080
008637CE
00014085
0005A404
000A702F
00000049
00050C58
00525F00
00505F00
00545F13
00445F00
00455F00
00465F00
00635F00
00055F23
00475F00
00449800
0045F000
000000CC
002000A0
00200022
000C1D30
00000000
00014184
000C1EC2
00061790
00000007
00014085
000444BF
0000021A
00000000
000C1EC2
00000000
0056F400
00000018
00200044
00000000
0021C400
000BF080
00863613
00631700
0047FF00
0005FF23
0063FF00
0046FF00
0045FF00
0044FF00
0054FF00
0050FF00
0052FF00
000BF080
0086142E
0020000B
0005A403
000A702E
00000049
000BF080
0086143E
0020000B
0005A403
000A702D
00000049
000BF080
00861551
005EF000
0000004B
00014085
000D104A
00000458
000A7034
00000048
000C8FCA
0000024A
006BF000
00000058
00240000
004C7000
00000059
00200013
000213D4
004C7000
00000057
004C2100
004C2200
005EF000
0000004B
00014184
00000000
00218500
000C1E8C
00000000
00218400
005EA900
00014184
000C1E98
00200042
00000000
005C7000
0000005A
00020B9C
00014180
00000000
005C7000
0000005B
005C7000
00000055
00218400
002000A0
00000000
00210E00
00200023
000140C4
00000001
00200036
0044F400
00000001
0045F400
00000002
005E7000
0000005C
005EA900
000B0F71
00202040
000B0F71
00202860
00000000
005E2800
00200013
00000000
005A2400
005C2500
00582600
0008F0ED
0000005A
0008F0F1
0000005B
0008F0F0
0000005C
0044F400
009D06C0
004C2300
0008F0F3
0000005B
0008F0F2
0000005C
0008F4AA
00FFFFCD
0008F4A6
00FFFFCD
005EF000
0000005A
000140C6
00000FFF
00000000
00562D00
000ABF2E
000ABF0F
000ABF30
000ABF11
000C8FC6
00000004
000ABE00
000ABE21
000B0460
000D1040
0000013F
006CF000
00000053
0005F424
00FFFFFF
006BF000
0000005D
000463A4
00000000
000204F4
004C5B00
00205B00
006CDB00
00000000
00000000
00000000
005EE400
004EF000
0000007F
0074F400
00000003
004EF055
00000080
000AF0AA
00860EE3
004EF055
00000082
000AF0AA
00860EE3
0074F400
00000004
004EF055
00000081
000AF0AA
00860EE3
004EF055
00000083
000AF0AA
00860EE3
004EF055
00000084
000AF0AA
00860EE3
004EF055
00000085
000AF0AA
00860EE3
0074F400
00000005
004EF055
00000086
000AF0AA
00860EE3
004EF055
00000087
000AF0AA
00860EE3
00200055
000AF0AA
00860EE3
000AF080
00860EE9
00204C00
005EE400
000140C0
00000001
00000000
005E6400
005EDB00
000140C4
00000001
000AF0AA
00860F28
0006CC10
00000039
006CDB00
00000000
00000000
00000000
005EE400
004EF000
0000007F
0074F400
00000003
004EF055
00000080
000AF0AA
00860F22
004EF055
00000082
000AF0AA
00860F22
0074F400
00000004
004EF055
00000081
000AF0AA
00860F22
004EF055
00000083
000AF0AA
00860F22
004EF055
00000084
000AF0AA
00860F22
004EF055
00000085
000AF0AA
00860F22
0074F400
00000005
004EF055
00000086
000AF0AA
00860F22
004EF055
00000087
000AF0AA
00860F22
00200055
000AF0AA
00860F22
000AF080
00860F28
00204C00
005EE400
000140C0
00000001
00000000
005E6400
006CDB00
00000000
00000000
00000000
005EE400
004EF000
0000007F
0074F400
00000003
004EF055
00000080
000AF0AA
00860F5A
004EF055
00000082
000AF0AA
00860F5A
0074F400
00000004
004EF055
00000081
000AF0AA
00860F5A
004EF055
00000083
000AF0AA
00860F5A
004EF055
00000084
000AF0AA
00860F5A
004EF055
00000085
000AF0AA
00860F5A
0074F400
00000005
004EF055
00000086
000AF0AA
00860F5A
004EF055
00000087
000AF0AA
00860F5A
00200055
000AF0AA
00860F5A
000AF080
00860F60
00204C00
005EE400
000140C0
00000001
00000000
005E6400
005EDB00
000140C4
00000001
000AF0AA
00860F9F
0006CC10
00000039
006CDB00
00000000
00000000
00000000
005EE400
004EF000
0000007F
0074F400
00000003
004EF055
00000080
000AF0AA
00860F99
004EF055
00000082
000AF0AA
00860F99
0074F400
00000004
004EF055
00000081
000AF0AA
00860F99
004EF055
00000083
000AF0AA
00860F99
004EF055
00000084
000AF0AA
00860F99
004EF055
00000085
000AF0AA
00860F99
0074F400
00000005
004EF055
00000086
000AF0AA
00860F99
004EF055
00000087
000AF0AA
00860F99
00200055
000AF0AA
00860F99
000AF080
00860F9F
00204C00
005EE400
000140C0
00000001
00000000
005E6400
00205B00
00205B00
00205B00
00205B00
006CDB00
00000000
00000000
00000000
00020C96
004E5B00
00020494
004C5B00
000204D4
004C5B00
0004C6A4
00209400
00240000
0006E420
00445C00
00445C00
006CF000
0000005D
00000000
00000000
00000000
000A64C1
00860FBB
000A6377
00205B00
00205B00
00205B00
00205B00
00205B00
006CDB00
00000000
00000000
00000000
00020C96
004E5B00
00020495
004D5B00
000204D4
004C5B00
00020CD4
004C5B00
0004C6A4
0020B400
00240000
0006E420
00445C00
00445C00
006CF000
00000058
004CA000
004C5B00
00000000
000204D4
004C5B00
0056F400
00000014
0045F400
0000000C
00200064
00000000
005C5B00
0044F400
00000000
004C5B00
00048176
00000033
0005F423
00FFFFFF
006BF000
0000004D
00240000
004C1000
00000000
000B73D4
00000005
006BF000
0000004E
0079F000
0000004B
00059361
00059164
000B73D1
00000005
00692700
00205C00
00205C00
004DDC00
00205C00
00205C00
004CE400
00079CC2
005EDC00
00205C00
00205C00
00205C00
00205C00
004CDC00
004C1500
00240000
00446100
00200003
00691400
005E7000
00000046
004EAB00
005EAC00
00202A51
0046F400
00000002
000B0F6E
00202854
006C1200
00072D0E
000D10C0
00000055
0005F423
00FFFFFF
006BF000
0000004D
00240000
004C1000
00000000
000B73D4
00000005
006BF000
0000004E
0079F000
0000004B
00059361
00059164
000B73D1
00000005
00692700
00205C00
00205C00
00205C00
00205C00
00205C00
00205C00
00205C00
004CE400
00079CC2
005EDC00
000140C4
00000001
00205C00
005E7000
00000046
004CDC00
004C1900
004CDC00
004C1B00
004CDC00
004C1C00
004CDC00
004C1D00
004CDC00
004C1A00
004CDC00
004C1500
006C1200
006C9900
005E9900
00240000
000140C5
00800000
005EE400
00202A41
00447900
0006CE20
00447900
004CF000
0000004B
00200044
00014180
00000000
005C7000
00000061
00691400
005EF000
00000046
004EAB03
005EAC00
00202A51
0046F400
00000002
000B0F6E
00202854
00000000
00072D0E
005A8C00
005C8D00
00588E00
0000000A
00000000
005A0C00
005C0D00
00580E00
004E8400
000CC697
00000011
006BF000
00000053
00000000
00000000
00000000
000203B6
004E0500
0020D300
004E8600
0004C6A3
00260000
0006E320
00465B00
00465B00
004E8400
000CC691
00000003
004E8400
000CC690
00000003
004E8400
000CC68F
00000003
004E8400
000CC695
00000003
004E8400
000CC687
00000003
004E8400
000CC689
00000002
004C9400
004C7000
00000050
000D10C0
000000D2
006BF000
00000058
00260000
004E7000
00000059
00200013
000213D6
004E7000
00000057
004E2100
004E2200
005EF000
0000004B
00014184
00000000
00218700
000C1E8C
00000000
00218600
005EA900
00014184
000C1E98
00200052
00000000
005C7000
0000005A
00020B9C
00014180
00000000
005C7000
0000005B
005C7000
00000055
00218600
002000B0
00000000
00210E00
00200023
000140C4
00000001
00200036
0046F400
00000001
0047F400
00000001
005E7000
0000005C
005EA900
000B0F71
00202050
000B0F71
00202870
00000000
005E2800
00200013
00000000
005A2400
005C2500
00582600
0008F0ED
0000005A
0008F0F1
0000005B
0008F0F0
0000005C
0046F400
009D06C0
004E2300
0008F0F3
0000005B
0008F0F2
0000005C
0008F4AA
00FFFFCD
0008F4A6
00FFFFCD
005EF000
0000005A
000140C6
00000FFF
00000000
00562D00
000ABF2E
000ABF0F
000ABF30
000ABF11
000C8FC6
00000004
000ABE00
000ABE21
006BF000
0000004E
00000000
00000000
00000000
000213F4
004C2700
004C1400
00260000
004E1C00
0005F423
00FFFFFF
006B9900
00000000
00000000
00000000
004EDB00
004FDB00
006B98B0
00200022
00000000
0004C831
00000000
00000000
0007A3D0
004FE300
0007B495
00000000
0006FFA0
00000000
0007B494
00000000
0006FFA0
00000000
00200013
0056F000
0000006B
0047F400
00000000
004EE300
000140C5
00080000
000D1042
0000000B
00200013
00200051
00014284
000D1042
00000004
0047F400
00000001
000D10C0
00000015
0056F000
0000006C
00000000
000CCE88
0000000A
0047F400
00000003
000C8FF1
00000004
0047F400
00000002
000D10C0
00000008
0047F400
00000002
000C8FF1
00000004
0047F400
00000001
00200013
004EDB00
00227B51
00014184
000D104A
00000015
00330000
0004CCA3
0006C720
00205B00
0006C610
0000000C
0005F423
00FFFFFF
00000000
00000000
00000000
0007ABD3
0004CCA3
00000000
00000000
00000000
00205B00
000AF080
0086114D
00079BD3
0007B494
00000000
0006FFA0
00000000
0007B495
00000000
0006FFA0
00000000
005A8C00
005C8D00
00588E00
0000000A
00000000
005A0C00
005C0D00
00580E00
004EF000
0000004B
004E7000
0000004C
000ABF32
000ABF13
0005F421
00FFFFFF
006BBB00
000463A1
0005A061
005EF000
000000A0
00205B00
0073F400
00000006
0006CE10
0000000C
00205B00
00205B00
00205B00
00205B00
0079DB00
0069A100
00205B00
00000000
00000000
00204900
00694B00
000A0FEA
0086124E
006CF000
0000004F
0005F424
00FFFFFF
00000000
00000000
00200013
000214D4
000A74E4
00000002
0074F400
00000006
0020941B
004CF000
0000004B
0006C400
00861199
0002049C
000140C6
00F00000
000AF0A2
00861197
000214D4
0056F400
00000001
000C1E48
00200018
00204C13
00000000
00000000
0021A513
0054F000
00FFFF85
0064F000
000000DD
00200026
00000000
0021C800
002C0000
00200032
000618A0
00018060
00000000
00210E00
00000000
00218400
00000000
0020001B
0055F000
00000068
00200013
00208C00
0046F000
0000006C
00000000
000CA476
00000060
000CC6A0
0000005E
000140CD
00021101
000D1041
0000002E
0044F400
00000048
000140C5
00000190
000D1041
00000084
0044F400
00000039
000140C5
000000C8
000D1041
0000007E
0044F400
00000018
000140C5
00000085
000D1041
00000078
0044F400
00000006
000140C5
00000064
000D1041
00000072
0044F400
00000004
000140C5
00000058
000D1041
0000006C
0044F400
00000003
000140C5
00000053
000D1041
00000066
0044F400
00000002
000140C5
00000050
000D1041
00000060
000D10C0
0000005E
0044F400
0000007F
000140C5
00000190
000D1041
00000058
0044F400
0000002F
000140C5
000000C8
000D1041
00000052
0044F400
00000018
000140C5
00000085
000D1041
0000004C
0044F400
00000007
000140C5
00000064
000D1041
00000046
0044F400
00000004
000140C5
00000058
000D1041
00000040
0044F400
00000004
000140C5
00000053
000D1041
0000003A
0044F400
00000002
000140C5
00000050
000D1041
00000034
000D10C0
00000032
000140CD
00021101
000D1041
00000006
00240000
00000000
000D10C0
0000002A
0044F400
0000007F
000140C5
00000190
000D1041
00000024
0044F400
0000002F
000140C5
000000C8
000D1041
0000001E
0044F400
0000001A
000140C5
00000085
000D1041
00000018
0044F400
00000007
000140C5
00000064
000D1041
00000012
0044F400
00000004
000140C5
00000058
000D1041
0000000C
0044F400
00000004
000140C5
00000053
000D1041
00000006
0044F400
00000002
000140C5
00000050
0056F400
000000F2
000BF080
008636F4
00219400
00000000
00000000
00000000
004C6400
00000000
00000000
000A0FCA
0086129B
0056F400
00000000
000D017B
00218E00
000140C5
0007071A
000AF0AA
00861260
000140C5
0012051A
000AF0AA
00861260
000140C5
0011011A
000AF0A2
0086129B
0007F08A
00D0FFFF
000C1C10
0007F08A
00D0FFFE
000C1C10
0007F08A
00D0FFFD
000C1C10
00000000
00219300
0005F423
00FFFFFF
0073F400
00000154
00000000
00000000
00000000
0007EB8E
00000000
000ACC05
0086129B
0064F000
000000DD
0007F08A
00D0FFFF
000C1C10
0007F08A
00D0FFFE
000C1C10
0007F08A
00D0FFFD
000C1C10
00000000
00219300
0005F423
00FFFFFF
0073F400
00000030
00000000
00000000
00000000
0007EB8E
000140C6
000000FF
000140C5
00000050
000D1042
0000000C
000BF080
00863782
000140C5
00021215
000D1041
00000006
000A6473
000AF0A8
0086129B
000A0F67
000BF080
0086165F
00569800
00014085
0005A4C5
000A702C
00000048
00525F00
00505F00
00545F13
00445F00
00455F00
00625F00
00055F22
0062F000
000000CB
0005F422
00FFFFFF
00645F00
00055F24
00635F00
00055F23
000464A2
000463A2
00639700
000A72D2
00000005
00465F00
00475F00
006CE300
00459800
00479F00
0046F000
000000D7
0006C510
00000028
00200013
00000000
0056DA00
0044F000
00000054
00200045
0044F400
00000000
000D1049
00000003
000AC462
0045F000
0000006C
00000000
000CC581
00000003
000AC461
00000000
00445F00
0044DA00
000CCE97
00000006
000ACE57
000140C4
00000003
00050C02
00200033
000140C0
00000050
00200070
00465C00
00445C00
00219300
0044FF00
00445C00
004DE300
00000000
00455C00
00000000
0046F000
000000D8
00000000
0003F486
00639700
0047FF00
0046FF00
00646300
0005FF23
0063FF00
0005FF24
0064FF00
0005FF22
0062FF00
0045FF00
0044FF00
0054FF00
0050FF00
0052FF00
0044F000
000000D3
000C9B97
00000004
00072504
00050C06
00071504
0001B8C5
00861304
00010162
0001016E
000A8981
00861304
0008F08D
00000048
00000000
00000000
000A8981
0086130A
0008F08D
00000049
000C8FCA
00000005
000A0122
0007B080
00000001
0044FF00
00447000
00000049
0044FF00
00447000
00000048
0047FF00
0046FF00
0045FF00
0044FF00
0055FF00
0051FF00
0053FF00
0005FF26
0076FF00
0066FF00
0005FF25
0075FF00
0065FF00
0005FF24
0074FF00
0064FF00
0005FF22
0072FF00
0062FF00
0005FF21
0071FF00
0061FF00
0005FF20
0070FF00
0060FF00
000AF080
008600F6
000A0F51
0044F400
0000000C
004C7000
00000047
0044F400
00863E07
004C7000
00000066
0044F400
00863C24
004C7000
00000067
00200013
004C8400
000CC4A0
00000010
0054F400
0000000E
0050F400
00000042
000BF080
008637CE
00200003
0005248F
000BF080
00861418
00200003
0005248B
000D10C0
00000037
0054F400
00000048
0050F400
00000042
000BF080
008637CE
00014085
00052481
000ABF2C
006BF000
0000005F
0005F423
00FFFFFF
00000000
00000000
00000000
00021BF4
000CC4B7
00000014
0054F400
0000004C
0050F400
00000042
000BF080
008637CE
00200003
0005244E
0054F400
00000050
0050F400
00000042
000BF080
008637CE
00200003
00052446
000D10C0
00000012
0054F400
0000004A
0050F400
00000042
000BF080
008637CE
00200003
0005241C
0054F400
0000004E
0050F400
00000042
000BF080
008637CE
00200003
00052414
00200013
0054F400
00000000
0050F400
00000042
000BF080
008637CE
00014085
0005240B
005E8400
00014085
0005A408
00200013
0054F400
00000001
0050F400
00000042
000BF080
008637CE
0000000C
000A0F71
0044F400
00000010
004C7000
00000047
0044F400
00864169
004C7000
00000066
0044F400
00863EED
004C7000
00000067
00200013
004C8400
000CC4A0
00000010
0054F400
0000000E
0050F400
00000042
000BF080
008637CE
00200003
0005248F
000BF080
00861418
00200003
0005248B
000D10C0
00000037
0054F400
00000048
0050F400
00000042
000BF080
008637CE
00200003
00052481
000ABF2C
006BF000
0000005F
0005F423
00FFFFFF
00000000
00000000
00000000
00021BF4
000CC4B7
00000014
0054F400
0000004C
0050F400
00000042
000BF080
008637CE
00200003
0005244E
0054F400
00000050
0050F400
00000042
000BF080
008637CE
00200003
00052446
000D10C0
00000012
0054F400
0000004A
0050F400
00000042
000BF080
008637CE
00200003
0005241C
0054F400
0000004E
0050F400
00000042
000BF080
008637CE
00200003
00052414
00200013
0054F400
00000002
0050F400
00000042
000BF080
008637CE
00200003
0005240B
005E8400
00200003
0005A408
00200013
0054F400
00000003
0050F400
00000042
000BF080
008637CE
0000000C
0054F400
0000000C
0050F400
00000042
000BF080
008637CE
00200003
0005240C
0054F400
0000000E
0050F400
00000042
000BF080
008637CE
00200003
00052404
000BF080
00861418
00200003
0000000C
000C8FE6
00000006
0054F400
00000013
000D10C0
0000000C
0054F400
00000017
0050F400
00000042
000BF080
008637CE
0054F400
00000015
000D10C0
00000002
0050F400
00000042
000BF080
008637CE
00000000
0000000C
0020001B
00261000
004CF013
00000305
005CF000
00000303
00200045
0020295A
00262000
004CF013
00000306
005CF000
00000304
00200045
0020295A
0000000C
0020001B
00261000
0044F013
00000405
0054F000
00000403
00200045
0020295A
00262000
0044F013
00000406
0054F000
00000404
00200045
0020295A
0000000C
00455F00
000A8982
0086144F
00084E0B
00000000
00000000
000A8982
00861454
0008450B
0006CC10
0000000B
0006C510
00000007
000A8982
0086145B
0008440B
00000000
00000000
00000000
00000000
00000000
0045FF00
000A8981
00861464
0008F48D
00000000
000AF080
008600F6
0000000C
0005F422
00FFFFFF
000464A2
000463A2
000466A2
0056F000
00000073
00200003
0005A51F
0056F000
00000052
00200003
0005A51B
000C1EC4
00000000
00218400
000141C0
00000008
00200022
00000000
00210E00
00000000
00547000
00000083
000BF080
00861749
00200003
00052404
000A7032
00000049
00050D09
00547000
00000082
0044F000
00000083
00200040
00000000
005C7000
000003F7
0056F000
00000052
000C1EC4
00000000
00218413
000141C0
00000004
00000000
00210E00
000C1EC2
00061790
00000007
00014085
000444BF
0000021A
00000000
000C1EC2
00000000
0056F400
00000018
00200044
00445F00
00635F00
00735F00
00055F23
00218400
000BF080
00863613
00226E00
00200003
0005FF23
0073FF00
0063FF00
0044FF00
00052404
000A7032
00000049
00050C9B
00547000
00000084
0056F000
00000052
00200003
0005A419
000C1EC4
00000000
00218400
000141C0
00000005
00200022
00000000
00507000
00000081
00210E00
000BF080
00861749
00200003
00052404
000A7030
00000049
00050C84
00540E00
0044F000
00000081
00200040
00000000
005C7000
000003F7
0056F000
00000073
00200003
0005A455
000A7032
00000048
0044F013
00000075
000141C0
0000000E
00200022
0046F000
0000007B
00210400
00447000
0000007A
000141D0
0000000E
00200022
00000000
00507000
00000080
00210E00
00200040
00000000
00547000
00000074
000BF080
00861749
00200003
00052404
000A7032
00000049
00050C1B
00540300
00540400
0044F000
00000074
00200040
00000000
005C7000
000003F7
0056F000
00000075
0066F403
00000075
0005A403
000BF080
00861513
0056F000
0000007B
0066F403
0000007B
0005A403
000BF080
00861513
0056F000
00000087
00200003
0005A401
0000000C
003C0600
0002069E
000A76D2
00000001
000A7031
00000048
000A72D4
00000001
000BF080
00861522
0044050B
0005A403
000A7031
00000049
0000000C
00040424
0006CC10
0000002B
0056E400
00014184
000C1EC2
00061790
00000007
00014085
000444BF
0000021A
00000000
000C1EC2
00000000
0056F400
00000018
00200044
000A7294
00000001
0021C400
000BF080
008635A4
0020000B
00052410
000BF080
0086354E
00226E00
000A72D4
00000001
00200003
0005A409
0056E41B
00020BD4
00020BCC
00014184
00634C00
00020B8C
00200013
00050C05
00240000
0057F400
00000001
0000008C
00000000
00000000
0000000C
0000000C
0005F425
00FFFFFF
000466A5
000464A5
0056F000
00000073
00200003
000D104A
00000106
0056F000
00000082
00219503
000D104A
00000101
0056F000
00000084
00219203
000D104A
000000FC
000B72D6
00000001
000B72E6
00000002
00020AF4
0006C410
00000005
00240000
00445E00
00000000
00000000
000466A5
00040747
0056F000
00000052
000C1EC4
00014184
003D0800
0003FF8C
00240000
0003FFC4
0003F7C4
0056F400
00000063
0050F400
00000042
000BF080
008637CE
000C84CD
0000000F
0066F400
00867975
00000000
00000000
00000000
000B76D6
00000004
0056F400
000C0000
00079304
00200042
00000000
0007668C
0056F400
00000062
0050F400
00000042
000BF080
008637CE
0056F400
00000064
0050F400
00000042
000BF080
008637CE
0066F400
0086796F
0076F400
00000003
00200003
0005255C
006CEE00
000202F4
000BF080
0086163B
004C5D00
000202B4
004C5D00
0044F400
00000007
000BF080
0086164E
004C5D00
000212F4
004C5D00
0003FFDE
000C1E84
000BF080
00862AB0
00585D00
000BF080
0086162D
005C5D00
000BF080
00861634
0003FFDE
000BF080
00862900
00218E00
000BF080
008636F4
005C5D00
000BF080
00861655
006C5D00
00228E00
00648E00
0044F000
00000085
000140C0
0000000E
00000000
005C5C00
004C5C00
000140C0
00000008
004C5C00
005C5C00
004C5C00
000A7794
00FFFFFC
0003FF94
0006C410
00000055
0056F400
00000064
0050F400
00000042
000BF080
008637CE
00547000
00000086
00200003
0005A403
0000008C
00050CDB
006CEE00
0003E5BE
000BF080
0086163B
00014880
00000000
005C5D00
0003E5BF
00014888
00000000
005D5D00
0044F400
00000007
000BF080
0086164E
004C5D00
0003E5B4
004C5D00
0003FFDE
00014180
00000000
0003FFCC
000C1E84
000BF080
00862AB0
00585D00
000BF080
0086162D
005C5D00
000BF080
00861634
0003FFDE
000C1E84
000BF080
00862900
00218E00
000BF080
008636F4
005C5D00
000BF080
00861655
006C5D00
00228600
000A77D4
00FFFFFC
0044F051
00000085
000140C0
0000000E
00000000
005C5C00
004C5C00
000140C0
00000008
004C5C00
005C5C00
004C5C00
00200051
0003DCE6
000140C0
00000001
00000000
0003E4AC
000140C0
00000001
00000000
0003ECAC
000A7794
00FFFFFC
00000000
00000000
00000000
00000000
00043FC7
00050C52
0074F400
00000005
00445F00
0003FDF4
00076C84
0044FF00
0000000C
0074F400
00000010
00445F00
0003FDF4
00076C84
0044FF00
0000000C
0074F400
00000003
00000000
00000000
00000000
00076C95
0074F400
00000013
00000000
00000000
00000000
00076C95
0074F400
0000001C
00000000
00000000
00000000
00076C95
0000000C
0074F400
0000000C
00000000
00000000
00000000
00076C95
0000000C
0074F400
0000001A
00000000
00000000
00000000
00076C8C
0000000C
000A7030
00000049
0000000C
0005F423
00FFFFFF
000462A3
000464A3
000465A3
000466A3
00040737
0056F000
00000073
00200003
000D104A
000000BA
0056F000
00000076
00000000
00219203
000D104A
00000064
00568300
00000000
00219503
000D104A
000000AF
000A1331
000A7030
00000048
000A7033
00000048
0056F400
00000072
0050F400
00000042
000BF080
008637CE
00200003
000D1042
000000A2
0056F400
00000008
000BF080
00861749
00200003
000D104A
0000009E
00219600
0056F000
00000052
000C1EC4
00000000
00020EEC
00021EAC
00240000
00020EA4
000A1313
000A1312
0044F000
00000075
000216E4
000BF080
0086175C
000216BE
00200003
0005A44B
000A1333
00050403
000BF080
00861808
0056F400
00000073
0050F400
00000042
000BF080
008637CE
00200003
000D1042
0000007E
000BF080
00861832
000A1332
000BF080
00861776
00200003
000D1042
00000076
000BF080
008617D9
000BF080
0086175C
000216BE
00200003
0005A40F
000A1312
00050403
000BF080
00861804
000A1332
000BF080
00861776
00200003
000D1042
00000065
000BF080
008617D9
000AF080
008616B5
00021EBE
00014184
00000000
00021EAC
0005A407
00020EBF
00014188
00000000
00020EAD
000AF080
00861696
0056F000
0000007C
00000000
00219203
000D104A
0000004C
00568300
000C93B1
0000001B
00219503
000D104A
00000046
000A7030
00000048
000A7033
00000048
0056F400
00000072
0050F400
00000042
000BF080
008637CE
00200003
000D1042
0000003A
0056F400
00000008
000BF080
00861749
00200003
000D104A
00000036
00219600
00050C03
000BF080
00861804
0056F400
00000074
0050F400
00000042
000BF080
008637CE
00200003
000D1042
00000026
0044F000
0000007B
000216E4
000BF080
008618EC
000216BE
00200003
0005A41C
000BF080
00861871
00200003
000D1042
0000001C
000BF080
008618CA
000216FE
00014184
00000000
0006CC10
00000010
000BF080
008618FE
000BF080
008618EC
000216BE
00200003
00052402
0000008C
000BF080
00861871
00200003
000D1042
00000008
000BF080
008618CA
00050C07
000A7033
00000049
00050C04
000A7030
00000049
00050C01
00043FD7
00000000
00000000
00000000
0000000C
0044F000
00000090
0046F041
00000767
00200050
000140C5
00000700
00051409
00547013
00000767
0020D600
00460B00
0006C410
00000002
00545E00
00050C0A
0046F041
000000EE
0044F050
000000F0
00200045
000517DB
00547013
000000EE
00050FD2
0000000C
004CF000
000003F7
00218640
000140C5
00000800
00200041
00051402
0000000C
004CF051
000000B1
004EF040
000000B3
00200055
00200041
00051402
0000000C
00200013
0000000C
0000000C
000A72D4
00000005
003C0600
000A7294
00000001
000216FF
00240000
000216A4
00020EB4
000B6434
0005840C
0056E400
00015F86
000C1EC4
00000000
00218E00
00200045
00052405
000A6434
000B7694
00000004
00050C04
0001418C
00204C0B
000527D1
0000000C
000BF080
0086180C
000B76D4
00000004
00000000
00000000
00000000
000A7495
00000005
0002049E
00015F86
000C1EC8
00000000
005C7000
00867486
000204DE
000BF080
0086181B
00200003
0005A48C
005C7000
00867487
00020C94
004C7000
00867488
0002049F
00014F8E
0056F400
00000001
000C1E16
00000000
005C7000
00867489
004CF000
008674A9
004C7000
0086748A
004CF000
008674AF
004C7000
0086748B
004CF000
008674AC
004C7000
0086748E
004CF000
008674AD
004C7000
00867490
004CF000
008674AE
004C7000
00867491
004CF000
008674B1
004C7000
00867492
004CF000
008674B3
004C7000
00867493
0002049E
00015F86
00000000
00218E00
000BF080
00862900
00214F00
00587000
0086748F
00218E00
000BF080
008636F4
005C7000
00867494
0001508D
0044F400
00000004
0057F400
00000008
00202A49
00020494
00445F00
000BF080
00862963
0056FF00
0044F403
00000001
00202A4C
005C7000
0086748C
005D7000
0086748D
00200013
0000000C
0056F400
0000000D
0000000C
0000000C
004CF000
00867486
004C5D00
004CF000
00867487
004C5D00
004CF000
00867488
004C5D00
004CF000
00867489
004C5D00
004CF000
0086748A
004C5D00
004CF000
0086748B
004C5D00
004CF000
0086748C
004C5D00
004CF000
0086748D
004C5D00
004CF000
0086748E
004C5D00
004CF000
0086748F
004C5D00
004CF000
00867490
004C5D00
004CF000
00867491
004C5D00
004CF000
00867492
004C5D00
004CF000
00867493
004C5D00
0000000C
004CF000
008674A5
0003FDA4
0000000C
004CF000
008674A5
0003FDA4
0000000C
00635F00
00735F00
00055F23
0063F400
00867486
00240000
00060F90
00000004
004C5B00
00000000
00000000
0005FF23
0073FF00
0063FF00
0000000C
000140C6
00C00000
000C1EE8
00000000
00218E00
00014085
00052404
005EF000
008674A6
0000000C
00014885
00052404
005EF000
008674A7
0000000C
00014C85
00052404
005EF000
008674A8
0000000C
00200013
0000000C
0000000C
00625F00
00725F00
00055F22
0005F422
00FFFFFF
0062F400
008679AA
00020EBE
000C1E84
000B72D2
00000003
00218400
0072F400
00000003
000BF080
00862AB0
00076A88
0072F400
00000005
00000000
00000000
00000000
00076A8C
00200041
000BF080
00862900
00218E00
0072F400
00000019
000BF080
008636F4
00076A8C
0020001B
00020EB6
000141D8
00000008
0020002A
0072F400
00000009
00212F00
0046F000
00000082
00200058
00000000
0021A600
00014188
00000000
00076A8D
0072F400
00000015
00000000
00000000
00000000
00076A8D
0072F459
0000000B
00014288
00000000
00076A8D
0005FF22
0072FF00
0062FF00
0000000C
000BF080
0086180C
000B76D4
00000004
00000000
00000000
00000000
000A7495
00000005
0002049E
00015F86
000C1EC8
00000000
000ACC6B
00000000
005C7000
00867486
000204DE
000BF080
0086181B
00200003
0005A480
005C7000
00867487
00020C94
004C7000
00867488
0002049F
00014F8E
0056F400
00000001
000C1E16
00000000
005C7000
00867489
004CF000
008674AA
004C7000
0086748A
004CF000
008674B0
004C7000
0086748B
004CF000
008674AB
004C7000
0086748E
004CF000
008674B1
004C7000
00867492
0002049E
00015F86
00000000
00218E00
000BF080
00862900
00214F00
00587000
0086748F
00218E00
000BF080
008636F4
005C7000
00867494
0001508D
0044F400
00000004
0057F400
00000008
00202A49
00020494
00445F00
000BF080
00862963
0056FF00
0044F403
00000001
00202A4C
005C7000
0086748C
005D7000
0086748D
00200013
0000000C
0056F400
0000000D
0000000C
0000000C
004CF000
00867486
004C5D00
004CF000
00867487
004C5D00
004CF000
00867488
004C5D00
004CF000
00867489
004C5D00
004CF000
0086748A
004C5D00
004CF000
0086748B
004C5D00
004CF000
0086748C
004C5D00
004CF000
0086748D
004C5D00
004CF000
0086748E
004C5D00
004CF000
00867494
004C5D00
004CF000
00867492
004C5D00
0000000C
000A72D4
00000005
003C0600
000A7294
00000001
000216FF
00240000
000216A4
000B6434
00058405
000A6434
000B7694
00000004
00050C04
0001418C
00204C0B
000527D8
0000000C
004CF000
008674A5
0003FDE4
0000000C
000A8982
00861902
00085F8B
000A8982
00861905
00085F8B
000BF080
008639E0
000CC901
00000000
0008FF8D
000AF080
008600F6
00040717
000BF080
00863A22
000CC901
00000000
0008FF8D
000AF080
008600F6
000A8982
00861917
00085F8B
000A8982
0086191A
00085F8B
000A8982
0086191D
00085F8B
000BF080
00863ACD
000CC901
00000000
0008FF8D
000AF080
008600F6
000A8981
00861927
00077007
00FFFFCD
000A8981
0086192B
0007700B
00FFFFCD
000A8981
0086192F
0007700F
00FFFFCD
000A8981
00861933
0008F0CD
0000000F
000A8981
00861937
0008F08D
00000013
000AF080
008600F6
     DC2
P 86193D
00525F00
00505F00
00545F00
00635F00
00735F00
00055F23
00655F00
00755F00
00055F25
00465F00
0005F423
00FFFFFF
000465A3
00200013
0056F000
0000006B
00010140
000A8982
0086194E
00085F8B
000A8982
00861951
00085F8B
000A8982
00861954
00085F8B
0063F400
00868297
0065F400
008682F7
000140C5
00080000
0005A458
00014173
00028D03
000A77DB
00FFFFFD
0003FF9C
000C1D00
004EEB00
00200052
00000000
00218600
00200013
0056F000
0000006C
00000000
0003F7C6
00049760
00000004
000CCEA3
00000026
0004C622
0063F400
00FFFF84
00014173
00058404
000610A2
00000000
00050C03
000668A2
00000000
00048156
00000008
0007B483
00000000
00048267
00000000
00048247
00000000
0003FFD4
0056F400
00000001
000C1E18
00000000
00218613
0006C610
0000000A
0007B483
00000000
00048267
00000000
00048247
00000000
004EE300
00000000
00200050
00050C18
00011761
0003FFD4
0056F400
00000001
000C1E18
00000000
00000000
00218613
0006C610
0000000C
0003F7D6
00000000
0004C622
00048267
00000000
00048247
00000000
004EF000
00FFFF84
00000000
00200050
00000000
00000000
00043FD7
00000000
00218600
0056F400
00000800
00048156
00000003
000C1C08
000C1E68
00000000
00218400
0056F400
00FFFFFF
00200022
002000D2
000C1C08
000A8981
008619BC
0008C80D
0046FF00
0005FF25
0075FF00
0065FF00
0005FF23
0073FF00
0063FF00
0054FF00
0050FF00
0052FF00
00000004
000AF080
008600F6
00625F00
00055F22
00725F00
00645F00
00055F24
00745F00
00465F00
00455F00
00475F00
005EF000
0000004B
00200003
000D1042
00000008
0044F400
0000000A
000BF080
0086354E
006B7000
0000004F
005EF000
0000004B
0044F000
00000051
00200045
000140C0
00000001
0005F422
00FFFFFF
005C7000
0000004B
006AF000
0000004F
000463A2
0064F000
000000DD
000A72D3
00000000
00200013
00000000
000A8982
008619F4
00084C0B
000C1D00
00000000
00219A00
000A8982
008619FA
0008440B
00200041
000140C6
00700000
00200041
000AF0A2
00861A37
000CA473
00000017
00200013
00000000
0056F000
0000006B
00000000
000140C5
00080000
00208C00
000D104A
0000000A
00209C13
0064F400
00868297
0005F424
00FFFFFF
00000000
00000000
005CEC00
00000000
000D10C0
0000001C
0056F000
0000006E
00000000
000140C0
00000155
0005F424
00FFFFFF
00219400
00000000
00000000
00000000
0007E486
00209C13
000CC6A0
00000006
0064F400
008682F7
000D10C0
00000007
0064F400
00868317
00000000
00000000
00000000
005CEC00
00000000
00234600
00200052
00000000
00545B00
000A8982
00861A38
00085B8B
000A8982
00861A3B
0008440B
00445B00
004C7000
000000B0
000A8982
00861A41
0008440B
00445B00
004C7000
00000054
000A8982
00861A47
00085B8B
000A8982
00861A4A
00085B8B
000A7293
00000000
0044F400
00000000
000A8981
00861A51
0008C40D
0047FF00
0045FF00
0046FF00
0074FF00
0005FF24
0064FF00
0072FF00
0005FF22
0062FF00
000AF080
008600F6
00050ECD
000AF080
008600F6
000AF080
008600F6
00240000
004C3F00
000BF080
008636C5
000BF080
00863268
000A8981
00861A6A
0008F48D
00000000
000AF080
008600F6
000A8981
00861A70
0008F48D
00000000
000AF080
008600F6
00445F00
00455F00
00465F00
00475F00
00044487
0007F407
00000A00
0007F406
00000000
000A8982
00861A7F
0008708B
00FFFF85
0004C487
0047FF00
0046FF00
0045FF00
0044FF00
000A8981
00861A88
0008F48D
00000000
000AF080
008600F6
000A8982
00861A8E
00084E0B
000140C6
0000000F
000C1E90
00000000
0021C400
00000000
00000000
00200013
000A8982
00861A99
00084E0B
00000000
0021CF00
00000000
00200042
00000000
0004CC73
00000000
0044F400
000186A0
0006C420
00000000
00000000
000A8981
00861AA8
0008F48D
00000000
000AF080
008600F6
00445F00
00455F00
00465F00
00475F00
000A8982
00861AB2
0008708B
00FFFF85
00200013
000A8982
00861AB7
00084E0B
00000000
0004CC83
0045F400
00008A15
00014085
0056F400
00000A15
00000000
00202261
00000000
005C7000
00000052
00044487
0007F407
00000A00
0007F406
00000000
0004C487
0047FF00
0046FF00
0045FF00
0044FF00
000A8981
00861AD0
0008F48D
00000000
000AF080
008600F6
000A8981
00861AD6
00077005
00FFFFCD
000AF080
008600F6
00044478
000AC444
000AC445
000AC450
004D8300
00200013
0020AE00
00014085
000D104A
0000000D
00014185
000D1042
00000005
000AC464
[...]
000AE680
0005FF25
0065FF00
0066FF00
0005FF21
0061FF00
0046FF00
0054FF00
0050FF00
0052FF00
00535F00
00515F00
00555F00
00525F00
00505F00
00545F00
00465F00
00445F00
00615F00
00055F21
00655F00
00755F00
00055F25
00665F00
00645F00
00055F24
00618300
0005F421
00FFFFFF
003D0400
000465A1
004CD900
006ED913
000C1940
00008018
00468A00
006DD950
000465A1
000AE680
00219649
000140CE
000FFFFF
0044DD00
0056E500
00262045
00202A5A
00545D00
00F8A600
00248056
0020224A
006CD901
0026F000
006ED956
0002AC06
0005D524
0064E500
0003E9AD
000AE680
00219649
000140CE
000FFFFF
0044DD00
0056CD00
0046C545
00202A51
00000000
00545D00
00F8A600
00202A52
00248000
00546656
0020224A
006CD901
0026F000
006ED956
0002AC06
0005D524
0064E500
0003E9AD
000AE680
00219649
000140CE
000FFFFF
0044DD00
0056CD00
0046C545
00202A51
00000000
00545D00
00F8A600
00248056
0020224A
006CD901
0026F000
006ED956
0002AC06
0005D524
0064E500
0003E9AD
000AE680
00F8BC00
004CD954
006ED900
00202913
000C1E38
004ED911
00646552
000AE680
00F8BC00
004CD954
006ED900
00202913
000C1E38
00646511
006CD900
006DD900
000AE680
00218600
006CD900
005EF000
00FFFF82
000140C6
00000100
006ED900
0002AC06
006DF000
00000109
0005F065
0000010A
000AE680
006ED900
000AC674
000B6534
00465D00
006CD900
00028C06
00000000
006D7000
00000109
000AE680
006ED900
004E7000
00FFFF84
00205900
000AE680
005C6400
00044C21
000AE580
000B71D6
00000006
00040181
000AE680
000B71D6
00000004
00040151
000AE680
0005FF24
0064FF00
0066FF00
0005FF25
0075FF00
0065FF00
0005FF21
0061FF00
0044FF00
0046FF00
0054FF00
0050FF00
0052FF00
0055FF00
0051FF00
0053FF00
00000004
0003C9BF
00260400
0020005A
00000000
0003C9AD
00050C01
00010141
000C9396
00000007
0001014E
00010142
000ABF06
000ABF07
00050C03
0007F40B
00000A00
000A0170
000A0153
0005FF24
0064FF00
0066FF00
0005FF25
0075FF00
0065FF00
0005FF21
0061FF00
0044FF00
0046FF00
0054FF00
0050FF00
0052FF00
0055FF00
0051FF00
0053FF00
00000004
     164
P 865321
00635F00
00055F23
00525F00
00505F00
00545F13
00445F00
00455F00
0056F000
00000076
00000000
00000000
00200003
00052405
0056F000
0000007C
00000000
00000000
00219300
0005F423
00FFFFFF
00000000
00000000
00000000
000A73D3
00000005
000A8982
0086533A
00084E0B
0044F400
00000000
000140C5
0000003F
0002A040
00000000
00218400
0006C410
00000005
00040363
00000000
00000000
00000000
000A73D3
00000002
00000000
00000000
00000000
0044DB00
0056DB00
00205B00
0044DB44
00202F40
004D8100
00000000
000A8981
00865356
0008C50D
000A8981
00865359
0008CC0D
0045FF00
0044FF00
0054FF00
0050FF00
0052FF00
0005FF23
0063FF00
00000004
00635F00
00055F23
0063F000
00000088
0005F423
00FFFFFF
00525F00
00505F00
00545F13
000A73D3
00000005
00445F00
00455F00
000A8982
00865371
0008440B
000A73D3
00000002
004D8100
000A8981
00865377
0008C50D
0044DB00
0056DB00
00205B00
0044DB44
00202F40
0045FF00
000A8981
00865380
0008CC0D
0044FF00
0054FF00
0050FF00
0052FF00
0005FF23
0063FF00
00000004
00635F00
00735F00
00055F23
00525F00
00505F00
00545F00
0056F000
00000076
00000000
00000000
00200003
00052405
0056F000
0000007C
00000000
00000000
00219300
0005F423
00FFFFFF
00738500
000A0152
00000000
00000000
000A73D3
00000005
00455F00
00445F00
0044F000
00000073
00040323
00665F00
00055F26
00635F00
0063E300
000A8982
008653AC
0008450B
000A73D6
00000000
000A73E6
00000002
0006C510
0000000D
0022D300
0006C410
00000007
000A8982
008653B8
0008450B
00454B00
00000000
00000000
00205E00
00000000
00000000
00000000
000A8981
008653C2
0008C50D
0063FF00
00236500
003B0600
0022CE00
000466A3
00000000
0063E300
0006C410
00000007
0044E300
000213C4
00546300
00204B00
00200060
00000000
0005FF26
0066FF00
000A8981
008653D6
0008F48D
00000000
0044FF00
0045FF00
0054FF00
0050FF00
0052FF00
0005FF23
0073FF00
0063FF00
00000004
00635F00
00735F00
00055F23
0063F000
00000088
0005F423
00FFFFFF
00738700
000A014A
00525F00
00505F00
00545F00
000A73D3
00000005
00445F00
00455F00
0044F000
00000087
00040323
00665F00
00055F26
00635F00
0063E300
000A8982
008653FA
0008450B
000A73D6
00000000
000A73E6
00000002
0006C510
0000000D
0022D300
0006C410
00000007
000A8982
00865406
0008450B
00454B00
00000000
00000000
00205E00
00000000
00000000
0063FF00
00236500
003B0400
0022CE00
000466A3
00000000
0066E300
0006C410
00000008
00204B00
0044E600
000216C4
00546600
0066E300
00200060
00000000
000A8981
0086541F
0008F48D
00000000
0005FF26
0066FF00
000A8981
00865425
0008F48D
00000000
0045FF00
0044FF00
0054FF00
0050FF00
0052FF00
0005FF23
0073FF00
0063FF00
00000004
00535F00
00515F00
00555F00
00445F00
00465F00
00615F00
00055F21
00645F00
00055F24
000A8982
0086543B
00084F0B
0044F000
00000052
0046F04D
0000007C
0056F000
00000076
00202151
0005F421
00FFFFFF
00219100
0044F000
00000077
0020214C
000464A1
0021A413
000211D8
000141C2
00000003
00000000
00211100
00000000
00000000
00000000
000A71D4
00000002
000A8982
00865457
0008460B
000A74D1
00000000
000A74E1
00000002
00222E00
0006C610
00000006
000A8982
00865461
0008598B
00000000
00000000
000A7491
00000000
000214CC
000A8981
00865469
0008C60D
000A8981
0086546C
0008F48D
00000000
0005FF24
0064FF00
0005FF21
0061FF00
0046FF00
0044FF00
0055FF00
0051FF00
0053FF00
000AF080
008600F6
000A8981
0086547B
0008F48D
00000009
00050FD1
000A8981
00865480
0008F48D
00000002
00050FCC
       F
Y 867486
00000001
00000001
00000001
00000001
00000001
00000001
00000001
00000001
00000001
00000001
00000001
00000001
00000001
00000001
00000001
      5D
Y 8674B4
0086765F
008676D1
00867698
008676DE
0086752B
0086752F
00867533
00867537
0086753F
00867543
00867547
0086754B
008676EB
0086753B
00867701
0086754F
00867553
0086770B
00867557
00867716
0086755B
00867728
0086755F
00867740
00867563
00867567
0086756B
00867758
0086756F
00867573
00867577
0086757B
0086757F
00867583
00867587
0086758B
0086758F
00867593
00867597
0086779E
008677B9
008677D4
0086759B
0086759F
008675A3
008675A7
008675AB
008675AF
008675B3
008675B7
008677E9
008675BB
00867804
008675BF
0086780F
008675C3
0086781C
008675C7
00867824
008675CB
0086782D
008675CF
00867836
008675D3
0086785C
008675D7
0086783F
008675DB
00867848
008675DF
00867851
008675E3
008678DA
008675E7
00867910
008675EB
0086791C
008675EF
00867928
008675F3
00867944
008675F7
008678A3
008675FB
008678AE
008675FF
008678B7
00867603
008678C0
00867607
008678C9
0086760B
008678D2
      1A
Y 867511
0086760F
00867613
00867617
0086761B
0086761F
00867968
00867975
0086796F
00867623
00867627
0086762B
0086762F
00867633
00867637
0086763B
0086763F
00867643
00867647
0086764B
0086764F
00867653
0086797F
008679AA
008679B6
00867657
0086765B
      E4
Y 86752B
00000001
00000000
00863C3A
000000EC
00000001
00000000
00863E11
000000AF
00000001
00000000
00863D26
000000E1
00000001
00000000
00863EC0
0000002D
00000001
00000000
00864279
0000010A
00000001
00000000
00863F03
00000152
00000001
00000000
00864173
000000D9
00000001
00000000
00864055
00000114
00000001
00000000
0086424C
0000002D
00000001
00000000
00864532
00000021
00000001
00000000
008644FD
00000035
00000001
00000000
0086441B
0000005A
00000001
00000000
00864475
00000088
00000001
00000000
00864383
00000098
00000001
00000000
000001C7
00000041
00000001
00000000
00000317
00000041
00000001
00000000
00000514
000001C3
00000001
00000000
000002CC
00000016
00000001
00000000
00000508
0000000C
00000001
00000000
008650F9
00000076
00000001
00000000
0086516F
00000004
00000001
00000000
00865173
00000002
00000001
00000000
00865175
0000000F
00000001
00000000
00865185
00000009
00000001
00000000
0086518E
00000013
00000001
00000000
008651A1
00000027
00000001
00000000
008651C8
0000005E
00000001
00000000
000002E2
00000035
00000001
00000000
00000208
0000002E
00000001
00000000
00000236
0000002F
00000001
00000000
00000265
0000002A
00000001
00000000
0000028F
0000002C
00000001
00000000
000002BB
00000011
00000001
00000000
00000358
00000015
00000001
00000000
0000036D
00000011
00000001
00000000
00864B1D
0000024D
00000001
00000000
00864D6A
00000033
00000001
00000000
00864D9D
00000072
00000001
00000000
00864B1C
00000001
00000001
00000000
00864994
00000019
00000001
00000000
008649AD
00000012
00000001
00000000
008649BF
00000014
00000001
00000000
00864804
00000190
00000001
00000000
008649F3
00000015
00000001
00000000
00864A08
00000017
00000001
00000000
00864A1F
00000054
00000001
00000000
008646DD
00000127
00000001
00000000
0086468E
0000004F
00000001
00000000
00864659
00000035
00000001
00000000
008645E4
00000075
00000001
00000000
00864553
00000091
00000001
00000000
00864AA3
00000041
00000001
00000000
00864AE4
0000000E
00000001
00000000
00864AF2
0000000E
00000001
00000000
00864B00
0000001A
00000001
00000000
00864B0C
00000010
00000001
00000000
00864EAF
00000249
      50
Y 86760F
00000001
00000000
00863AF9
00000001
00000001
00000000
00863AFA
00000001
00000001
00000000
00865226
0000000E
00000001
00000000
00865252
00000009
00000001
00000000
00865234
0000001E
00000001
00000000
0086525B
00000015
00000001
00000000
00865270
00000008
00000001
00000000
00865278
00000013
00000001
00000000
0086528B
00000016
00000001
00000000
008652A1
00000014
00000001
00000000
008652B5
00000008
00000001
00000000
008652BD
00000009
00000001
00000000
008652E2
00000003
00000001
00000000
008652C6
0000001C
00000001
00000000
008652E5
00000004
00000001
00000000
008652E9
00000004
00000001
00000000
008652ED
00000011
00000001
00000000
008652FE
00000023
00000001
00000000
0000037E
00000062
00000001
00000000
000003E0
0000001A
     309
Y 86765F
00000002
00000000
00000003
00000000
00000000
00000000
00000004
00000005
00000007
00000017
000040C3
0000002B
000BA0C3
0000002C
00050084
0009E080
0006C084
00098080
0006E084
0006E082
00096084
0009E080
000F8084
00146080
00114084
00140080
00116084
00116082
0013E084
00146080
00000043
0000002F
00052043
00000068
000BA043
00000030
000FC043
00000069
00152043
0000006A
001A0043
00000031
00042143
00000062
00034143
00000063
00026143
00000064
0001E143
00000065
0007E004
00000102
00124004
00000102
00178004
00000102
00000000
00000002
00000000
00000003
00000000
00000000
00000000
00000009
00000008
0000000B
00000017
00004043
0000002B
000EC043
0000002C
0007A004
000D0000
00096004
000CA000
00098004
00098002
000C8004
000D0000
00144004
0019A000
00160004
00194000
00162004
00162002
00192004
0019A000
0000C0C3
0000002F
000940C3
00000068
001320C3
00000030
001980C3
00000069
002120C3
0000006A
0026C0C3
00000031
00042143
00000062
00034143
00000063
00026143
00000064
0001E143
00000065
000C0084
00000102
001C0084
00000102
00238084
00000102
00000000
00000002
00000000
00000001
00000000
00000006
00000003
00000043
0000006B
000A0043
0000006C
00134043
0000006D
00000000
00000002
00000000
00000001
00000000
0000000A
00000003
0000C043
0000006B
000E2043
0000006C
0019A043
0000006D
00000000
00000002
00000000
00000001
00000000
0000000D
00000008
00040004
0008C000
0005C004
00060000
00060004
00060002
00084004
00094000
000BA004
000D6000
000B2043
00000016
000BC043
00000017
00001001
00000000
00000002
00000000
00000001
00000000
0000000F
00000003
0000A001
00026045
00034045
00000000
00000002
00000000
00000001
00000000
00000010
00000004
0000A201
0001E045
00040045
00030045
00000000
00000002
00000000
00000001
00000000
00000012
00000007
0000A201
00000045
0001C045
00032006
000008F7
0003E006
000008F7
00074006
000008F7
00801A01
00003C00
00000000
00000002
00000000
00000001
00000000
00000014
0000000A
0000A201
00000045
0001C045
0006C006
00000951
00078006
00000951
000AC006
00000951
000D4006
00000951
000B0006
00000951
00801A01
00006A00
00801C01
00005800
00000000
00000002
00000000
00000001
00000000
00000016
00000009
00007001
0080FA01
00008F00
00000004
000AE002
00004004
0011A002
00008004
00018002
0000C004
000FE002
00010004
00018002
00014004
000AE002
000C2004
000D2000
00000000
00000002
00000000
0000000C
00000000
00000000
00000000
00000000
00000000
00000000
00000000
00000000
00000000
00000000
00000000
00000000
00000018
00000019
0000001C
0000001D
0000002A
0000002B
0000002C
0000002D
0000002E
00000026
0000002F
00000030
0000001F
0000E601
00006045
00032004
00000102
0006A045
00808801
00000001
000600C5
000440C5
0000C0C5
000360C5
00000145
00008145
0000C104
00000182
00808401
00000004
0000C245
0004A245
0003E245
00030245
00808601
00000005
000082C5
000262C5
000442C5
000342C5
00000363
0000017C
000003E3
0000017E
00000463
00000180
0080D401
00000009
0000C4C5
000384C5
000564C5
00808A01
0000000A
00808C01
0000000B
00000002
00000000
00000005
00000000
00000000
00000000
00000000
00000000
0000001E
0000001F
00000021
00000022
00000023
00000006
00000023
000000D3
000001A3
000000D5
0002E023
000000D7
0008A023
000000D8
000EC004
00004100
00000063
00860416
00000000
00000002
00000000
00000005
00000000
00000000
00000000
00000000
00000000
0000001E
00000020
00000021
00000022
00000023
00000006
00000023
000000D3
000001A3
000000D5
0002E023
000000D7
0008A023
000000D8
000EC004
00004100
00000063
00860416
00000000
00000002
00000000
00000002
00000000
00000000
00000024
00000025
0000000A
0000B401
0000A045
0002E004
00034000
00040045
0080B601
00000001
000260C5
000360C5
000780C5
000580C5
000640C5
00000000
00000002
00000000
00000001
00000000
00000031
0000000A
00000043
000000AF
00078043
000000A2
000D2043
000000A3
00138043
000000A4
00196043
000000A5
002E4043
000000AA
00312043
000000AB
00342043
000000AC
00368043
000000AD
0046C043
000000AE
00000000
00000002
00000000
00000001
00000000
00000033
00000003
00014006
00864D6A
00050006
00864D6A
0000A401
00000002
00000000
00000001
00000000
00000035
00000004
00010006
00864D9D
00044006
00864D9D
0000A601
00801E01
00006D00
00000002
00000000
00000001
00000000
00000037
00000001
00000043
0000009D
00000002
00000000
00000001
00000000
00000039
00000001
00000043
0000006E
00000000
00000002
00000000
00000001
00000000
0000003B
00000001
00000043
0000006F
00000000
00000002
00000000
00000001
00000000
0000003D
00000001
00000043
00000070
00000000
00000002
00000000
00000001
00000000
00000041
00000001
00000043
00000071
00000000
00000002
00000000
00000001
00000000
00000043
00000001
00000043
00000072
00000000
00000002
00000000
00000001
00000000
00000045
00000002
00000043
00000073
00054043
00000074
00000000
00000002
00000000
00000001
00000000
0000003F
00000020
0031A043
0000002D
00184043
0000002E
00000043
0000007F
00022043
00000080
0006C043
00000082
00046043
00000081
00092043
00000083
000BC043
00000084
0011E043
00000086
000F0043
00000085
0014C043
00000087
001AC043
00000088
001BE043
00000089
001D0043
0000008A
001E2043
0000008B
001F4043
0000008C
00206043
0000008D
00218043
0000008E
0022A043
0000008F
0023C043
00000090
0024E043
00000091
00260043
00000092
00272043
00000093
00284043
00000094
00296043
00000095
002A8043
00000096
002BA043
00000097
002CC043
00000098
002DE043
00000099
002F0043
0000009A
002FE043
0000009B
0030C043
0000009C
00000000
00000002
00000000
00000001
00000000
00000051
00000002
00000043
0000007A
00801201
00001300
00000000
00000002
00000000
00000001
00000000
00000053
00000001
00000043
0000007B
00000000
00000002
00000000
00000001
00000000
00000055
00000001
00000043
0000007C
00000000
00000002
00000000
00000001
00000000
00000057
00000001
00000043
0000007D
00000000
00000002
00000000
00000001
00000000
00000059
00000001
00000043
0000007E
00000000
00000002
00000000
00000001
00000000
0000005B
00000001
0000A801
00000000
00000002
00000000
00000001
00000000
00000047
00000018
00052006
00000BB9
00056006
00000BB9
0005A006
00000BB9
0007C006
00000BB9
000A6006
00000BB9
000BA006
00000BB9
000C0006
00000BB9
000D4006
00000BB9
00120006
00000BB9
00124006
00000BB9
00128006
00000BB9
0012C006
00000BB9
00130006
00000BB9
00134006
00000BB9
00138006
00000BB9
0013C006
00000BB9
00140006
00000BB9
0017C006
00000BB9
001C0006
00000BB9
001E6006
00000BB9
001F4006
00000BB9
001F8006
00000BB9
00206006
00000BB9
00001801
00000000
00000002
00000000
00000001
00000000
00000049
00000003
00074006
00000B6A
00092006
00000B6A
0000A001
00000000
00000002
00000000
00000001
00000000
0000004B
00000003
00046006
00000B35
0005E006
00000B35
0000A001
00000000
00000002
00000000
00000001
00000000
0000004D
0000000B
00038006
00000AC0
0006C006
00000AC0
00092006
00000AC0
0004A006
00000AC0
00054006
00000AC0
0005C006
00000AC0
00078006
00000AC0
0007A006
00000AC0
000A0006
00000AC0
000AE006
00000AC0
0000A201
00000000
00000002
00000000
00000001
00000000
0000004F
0000000F
00038006
00000A2F
0006C006
00000A2F
00092006
00000A2F
000B8006
00000A2F
000E2006
00000A2F
0004A006
00000A2F
00054006
00000A2F
0005C006
00000A2F
00078006
00000A2F
0007A006
00000A2F
000A0006
00000A2F
000A8006
00000A2F
000C8006
00000A2F
000CA006
00000A2F
0000A201
00000000
      5E
Y 867968
00000002
00000000
00000001
00000000
0000005F
00000001
00001201
00000003
00000000
00000001
00000000
00000061
00000000
00000002
00000000
00000002
00000000
00000000
00000060
0000005D
00000001
00000023
00000085
00000002
00000000
00000009
00000000
00000000
00000000
00000000
00000000
00000000
00000000
00000000
00000000
00000065
00000066
00000067
00000068
00000069
0000006A
0000006E
00000070
00000071
0000000B
00002801
00000043
008674A4
000000C3
008674A5
00000143
008674A6
000001C3
008674A7
00000243
008674A8
000002C3
008674A9
00000343
008674AF
000003C3
008674B1
00000443
008674B2
00000443
008674B3
00000003
00000000
00000001
00000000
0000006D
00000003
00000043
008674AC
0001A043
008674AD
0002E043
008674AE
00000002
00000000
00000003
00000000
00000000
00000000
0000006B
0000006C
0000006F
00000003
00000043
008674AA
000000C3
008674AB
00000143
008674B0
       1
Y 867AC7
00000000
     142
Y 868297
00000008
00000009
0000000A
0000000B
0000000C
0000000D
0000000E
0000000F
00000010
00000011
00000012
00000013
00000014
00000015
00000016
00000017
00000800
00000900
00000A00
00000B00
00000C00
00000D00
00000E00
00000F00
00001000
00001100
00001200
00001300
00001400
00001500
00001600
00001700
00000020
00000021
00000022
00000023
00000024
00000025
00000026
00000027
00000040
00000041
00000042
00000043
00000044
00000045
00000046
00000047
00002000
00002100
00002200
00002300
00002400
00002500
00002600
00002700
00004000
00004100
00004200
00004300
00004400
00004500
00004600
00004700
00000008
00000009
0000000A
0000000B
0000000C
0000000D
0000000E
0000000F
00000010
00000011
00000012
00000013
00000014
00000015
00000016
00000017
00000020
00000021
00000022
00000023
00000024
00000025
00000026
00000027
00000040
00000041
00000042
00000043
00000044
00000045
00000046
00000047
00000018
00000019
0000001A
0000001B
0000001C
0000001D
0000001E
0000001F
00001800
00001900
00001A00
00001B00
00001C00
00001D00
00001E00
00001F00
00000060
00000061
00000062
00000063
00000064
00000065
00000066
00000067
00006000
00006100
00006200
00006300
00006400
00006500
00006600
00006700
00000018
00000019
0000001A
0000001B
0000001C
0000001D
0000001E
0000001F
00000060
00000061
00000062
00000063
00000064
00000065
00000066
00000067
00000018
00000019
0000001A
0000001B
0000001C
0000001D
0000001E
0000001F
00000060
00001800
00001900
00001A00
00001B00
00001C00
00001D00
00001E00
00001F00
00006000
00000008
00000009
0000000A
0000000B
0000000C
0000000D
0000000E
0000000F
00000010
00000011
00000012
00000013
00000014
00000015
00000016
00000017
00000800
00000900
00000A00
00000B00
00000C00
00000D00
00000E00
00000F00
00001000
00001100
00001200
00001300
00001400
00001500
00001600
00001700
00008000
00008001
00008002
00008003
00008004
00008005
00008006
00008007
00008020
00008021
00008022
00008023
00008024
00008025
00008026
00008027
00008040
00008140
00008240
00008340
00008440
00008540
00008640
00008740
00008060
00008160
00008260
00008360
00008460
00008560
00008660
00008760
0000A000
0000A001
0000A002
0000A003
0000A004
0000A005
0000A006
0000A007
0000A020
0000A021
0000A022
0000A023
0000A024
0000A025
0000A026
0000A027
0000A040
0000A140
0000A240
0000A340
0000A440
0000A540
0000A640
0000A740
0000A060
0000A160
0000A260
0000A360
0000A460
0000A560
0000A660
0000A760
0000C000
0000C001
0000C002
0000C003
0000C004
0000C005
0000C006
0000C007
0000C020
0000C021
0000C022
0000C023
0000C024
0000C025
0000C026
0000C027
0000C040
0000C140
0000C240
0000C340
0000C440
0000C540
0000C640
0000C740
0000C060
0000C160
0000C260
0000C360
0000C460
0000C560
0000C660
0000C760
0000E000
0000E001
0000E002
0000E003
0000E004
0000E005
0000E006
0000E007
0000E020
0000E021
0000E022
0000E023
0000E024
0000E025
0000E026
0000E027
0000E040
0000E140
0000E240
0000E340
0000E440
0000E540
0000E640
0000E740
0000E060
0000E160
0000E260
0000E360
0000E460
0000E560
0000E660
0000E760
       0
E 000100
