      3B
Y 000003
00000000
00000000
00000000
00000000
00000000
00000000
00000000
00000000
00000000
00000000
00000000
00000000
00000000
00000000
00000000
00000000
00000000
00000000
00000000
00000000
00000000
00000000
00000000
00000000
00000000
00000000
00000000
00000000
00000000
00000000
00000A15
00000000
00000000
00000000
00000000
00000000
00000000
00000000
00000000
00000000
00000000
00000000
00000000
00000000
00864895
008647CA
0000000A
00000400
00000200
00000100
00000080
00000000
00000000
00000000
00000000
00000000
00000000
00000007
00000000
      72
Y 000046
00000000
00000000
00000000
00000000
00000000
00000000
00000000
00000000
00000000
00000000
00000000
00000000
00000000
00000000
00000000
00000000
00000000
00000100
00000000
00000000
00000000
00863DF3
00863DFB
00000150
00000145
000001A4
00000199
00000225
0000023A
00000259
00000200
0000012A
0000017E
000001DB
00000111
00000165
000001B9
00000278
0000030B
0000033D
0000036F
0000039F
000003CE
0000040C
00000442
000004D3
000004D8
000004DD
000004ED
00864898
008648B1
008648C3
008648F7
0086490C
00864923
0086494D
00864977
0086497D
00864983
00864989
0086498E
008649A7
008649E8
008649F6
00864A02
00864708
00864719
0086472B
0086473E
00864751
00864766
00864780
00864797
008647AE
008647DE
008647E7
008647F0
008647F9
00864802
0086480B
00864814
0086481D
00864826
0086482F
00864838
00864841
0086484A
00864853
0086485C
00864865
0086486E
00864877
00864880
00864887
0086488E
00864A12
00000000
00000000
00000000
00000000
00864A4F
00864A7C
00864AAF
00864ADE
00864A35
00864A62
00864A95
00864AC4
00864B85
00864B9C
00864BB4
00864BC7
00864C49
00864A13
       7
Y 000300
00000000
00000100
00000100
00000400
00000300
00000100
00000100
       1
Y 0003F7
000003F8
       B
X 000000
00000000
00000000
00000000
00000000
00000000
00000000
00000000
00000000
00000000
00000000
00000000
       3
X 00002E
00000000
00000000
00000000
       B
X 000040
00000000
00000000
00000000
008673AB
0000006D
000001B9
000001B9
00000FFF
0086537C
0086537C
0086637C
      1C
X 000055
0010006C
00100070
00100074
00100078
0010007C
00100080
0010006D
00100071
00100075
00100079
0010007D
00100081
00300036
00300039
0030003C
0030003F
00300042
00300045
00000000
00000000
00000000
00000000
00000000
00000000
00000000
00000000
00000000
00000000
       4
X 000073
00000000
00000210
000001B8
00000108
       1
X 00008A
00000000
      22
X 0000A3
00000006
0000001E
00000050
00000334
00000050
00000050
00000118
000005C0
00000050
00000020
00000001
00000BB8
00000001
00000FA0
00000003
00000000
00000002
0000000C
00000000
00001111
00002222
00004444
00008888
00005555
0000AAAA
0000FFFF
0000EEEE
0000DDDD
0000BBBB
00007777
00000000
00000000
00000000
00000000
      15
X 0000DD
00000000
00000000
00000000
00000001
00000002
00000018
00000019
0000001A
00000020
00000022
00000023
00000028
00000030
00000038
00000050
00000051
00000090
000000C0
00000091
00000009
0000000A
       7
X 000400
00000000
00820000
0086A000
00840000
0086C000
00820000
0086A000
       1
X 000767
00000768
      3E
P 000100
000A1D41
0005F42A
000007D0
0005F438
00000020
00044CBA
000140C6
00E0FFFF
00000000
0004CCBA
000AFA74
000A1D41
0044F400
00000700
004C7000
00000040
006FF000
00000040
0005DFA7
000BF080
000006C2
000A8523
000A8504
000A8505
000ABA2C
0056F400
0000430C
000ABA0C
0004CCBA
000BF080
00000704
0060F400
00000002
00000000
0009D005
00000000
0060F400
00000000
00000000
00607000
00000053
0060F400
0000012D
00607000
00000054
0060F000
00000054
00000000
00000000
00000000
000AE080
000A8982
00000133
0008440B
000A8982
00000136
0008440B
000A8981
00000139
0008F48D
00000000
00000004
      2F
P 00013E
0007F40F
00000A00
0007F40B
00000A00
0007F407
00000A00
00000084
0054F400
00FFFFFF
00000000
0004CCA0
0004CCA1
0004CCA2
0004CCA3
0004CCA4
0004CCA5
0004CCA6
0004CCA7
0005F43B
00000000
0005F431
00000000
0008F4BE
00000001
0000FCB8
002C0000
00300000
00067F90
00000005
0007588C
0007588C
00000000
00000000
00000000
0054F400
000BF080
00000000
0007000C
00070A0C
0054F400
0000013E
00000000
0007010C
00070B0C
000AF080
00FF0000
00000004
      4C
P 00016D
000AF080
00000257
000AF080
00000281
000AF080
000002AD
0007F40F
00000A00
0007F40B
00000A00
0007F407
00000A00
000ABF06
000ABF07
000ABF08
000CC902
00000000
0008708B
00000061
000CC902
00000000
0008708B
00000062
000CC902
00000000
0008708B
00000063
000CC902
00000000
0008708B
00000064
000CC902
00000000
0008708B
00000065
000CC902
00000000
0008708B
00000066
000CC901
00000000
0008F48D
00000000
0073FF00
0005FF23
0063FF00
0044FF00
0050FF00
0054FF00
0052FF00
00000004
000D1080
00000522
000BF080
000004FF
000BF080
008634E1
000CC901
00000000
0008F48D
00000000
000A1D61
000AF080
000001F2
000CC901
00000000
00097080
00FFFFCD
00000000
00000000
000CC901
00000000
0009709C
00FFFFCD
000AF080
000001F2
      41
P 0001B9
00525F00
00545F00
00505F00
000A8982
000001BC
00084E0B
00445F32
000140C4
00000001
0044F400
00000021
0002F040
000140C5
0000001F
00027040
00635F00
00219300
00055F23
00735F00
00000000
000D1BC0
000AF080
00000173
000AF080
0086011F
000AF080
000002BE
000AF080
00860417
000AF080
0086030C
000AF080
00860125
000AF080
008612DB
000AF080
0086178F
000AF080
0086179C
000AF080
008617A4
000AF080
00000369
000AF080
000003CB
000AF080
000001A0
000AF080
000001AD
000AF080
008617B4
000AF080
000003E5
000A8981
000001EE
0008F48D
00000010
0073FF00
0005FF23
0063FF00
0044FF00
0050FF00
0054FF00
0052FF00
00000004
     1C8
P 0001FA
00635F00
00615F00
00655F00
00755F00
00055F25
0065A500
000A8982
00000200
00085D0B
0005F425
00FFFFFF
00525F00
00505F00
00545F00
00204D00
005EE500
000140C6
000000FF
00000000
00219300
0054FF00
0050FF00
0052FF00
000D1BC0
000A8981
00000212
0008F48D
00000000
00050C0C
000B75D5
00000300
000A8981
00000219
0008D50D
00050C06
000B75D5
00000200
000A8981
0000021F
0008E5CD
0005FF25
0075FF00
0065FF00
0061FF00
0063FF00
00000004
00655F00
00755F00
00055F25
0065A500
000A8982
0000022C
00085D0B
0005F425
00FFFFFF
00525F00
00505F00
00545F00
00204D00
000B75CE
00000100
000140C6
000000FF
00635F00
00219300
000A8982
0000023B
00084E0B
00615F00
000B75D1
00000200
000D1BC0
000A8981
00000242
0008F48D
0000000C
00050C08
005C6100
000B758C
00000300
000A8981
0000024A
0008F48D
00000000
0061FF00
0063FF00
0054FF00
0050FF00
0052FF00
0005FF25
0075FF00
0065FF00
00000004
000140C5
00000100
00059404
0056F400
0000000A
0000000C
00655F00
00755F00
00055F25
0065A500
00219D00
0005F425
00FFFFFF
00535F00
00515F00
00555F00
00204D00
005FE500
000C1ED1
000140CE
000000FF
00635F00
0021B300
00615F00
000B75D1
00000200
000D1BC0
00200013
00050C05
000B75CE
00000300
00050C02
005EE100
0061FF00
0063FF00
0055FF00
0051FF00
0053FF00
0005FF25
0075FF00
0065FF00
0000000C
000140C5
00000100
00059404
0056F400
0000000A
0000000C
00655F00
00755F00
00055F25
0065A500
00219D00
0005F425
00FFFFFF
00535F00
00515F00
00555F00
00204D00
000B75CF
00000100
000C1ED1
000140CE
000000FF
00635F00
0021B300
00615F00
000B75D1
00000200
000D1BC0
0056F400
0000000C
00050C05
00586100
000B7588
00000300
00200013
0061FF00
0063FF00
0055FF00
0051FF00
0053FF00
0005FF25
0075FF00
0065FF00
0000000C
00655F00
00755F00
00055F25
0065A500
00219D00
0005F425
00FFFFFF
00000000
00000000
00204D00
00000000
000B75CE
00000200
0005FF25
0075FF00
0065FF00
0000000C
000A8981
000002BE
0008F48D
0000000C
000A98B7
000002C2
0008F49B
000004F3
0008F499
0000000B
0008F49A
00FFFFCD
0008F498
0088F252
0073FF00
0005FF23
0063FF00
0044FF00
0050FF00
0054FF00
0052FF00
00000004
00525F00
00505F00
00545F13
00445F00
00455F00
00615F00
000A8982
000002DA
00084E0B
00200033
0044F000
00000070
000140C0
00000050
000D0171
0021D100
000CC481
00000012
004CE100
00000000
004DE100
000A8981
000002E9
0008C40D
000A8981
000002EC
0008C50D
0061FF00
0045FF00
0044FF00
0054FF00
0050FF00
0052FF00
00000004
004CE100
00000000
000A8981
000002F8
0008C40D
0061FF00
0045FF00
0044FF00
0054FF00
0050FF00
0052FF00
00000004
00525F00
00505F00
00545F00
00445F00
00455F00
00200013
000A8982
00000308
0008440B
0007F08E
00D0FFFF
0007F084
00D0FFFE
000C1940
00008020
0007F084
00D0FFFD
000C1940
00008028
0044F400
00D01000
00218E00
000140C5
00D02000
00022040
00000000
0021C400
000A8982
0000031D
00084E0B
00014184
00000000
00000000
0021C500
000AACB7
00000332
0008C42F
0008F4AE
00FFFFCD
0008C52D
0008F4AC
0088F252
0045FF00
0044FF00
0054FF00
0050FF00
0052FF00
00000004
00209300
0006C510
00000006
000A8981
00000335
0008DB4D
00000000
00000000
000A8981
0000033A
0008DB4D
0045FF00
0044FF00
0054FF00
0050FF00
0052FF00
00000004
00635F00
00055F23
00735F00
0005F423
00FFFFFF
0063F400
00867863
000CC902
00000000
00085B0B
000CC902
00000000
00086BCB
000CC901
00000000
0008F48D
00000000
0073FF00
0005FF23
0063FF00
00000004
00635F00
00055F23
00735F00
0005F423
00FFFFFF
0063F400
00867863
000CC902
00000000
00085B0B
000CC901
00000000
0008EBCD
0073FF00
0005FF23
0063FF00
00000004
00645F00
00055F24
0064F400
000003C2
0005F424
00FFFFFF
000463A4
000CC902
00000000
0008530B
000CC902
00000000
0008440B
0056F400
00000008
00200044
0005945D
00645F00
0006C410
00000006
000CC902
00000000
00085C4B
00000000
00000000
0006CC10
00000006
00200013
00000000
00075C8C
00000000
00000000
0064FF00
0044F441
00000003
00200040
000C1C04
00000000
0006CC10
00000018
0044F400
000000AA
00077084
00D05555
0044F400
00000055
00077084
00D02AAA
0044F400
000000A0
00077084
00D05555
00060490
00000004
0007DC84
00075B84
00000000
0044F400
001E8480
0006C420
00000000
00000000
00000000
000CC901
00000000
0008F48D
00000000
0005FF24
0064FF00
0073FF00
0005FF23
0063FF00
0044FF00
0050FF00
0054FF00
0052FF00
00000004
0006C410
00000006
000CC902
00000000
0008440B
00000000
00000000
000CC901
00000000
0008F48D
00000002
00050FCB
     129
P 0003CA
00000000
000CC902
00000000
0008530B
000CC902
00000000
0008440B
0005F423
00FFFFFF
0006C410
00000009
0007DB8E
000140C6
000000FF
000CC901
00000000
0008CC0D
00000000
00000000
0073FF00
0005FF23
0063FF00
0044FF00
0050FF00
0054FF00
0052FF00
00000004
000A8982
000003E5
00084E0B
00000000
00218D00
00000000
000A8982
000003EB
00084E0B
00000000
00218900
00000000
00000000
00645F00
00625F00
000140CE
0000DFFF
000140C8
00D02000
0062F400
00D70000
0005F422
00FFFFFF
0044F400
000000AA
00077084
00D05555
0044F400
00000055
00077084
00D02AAA
0044F400
00000080
00077084
00D05555
0044F400
000000AA
00077084
00D05555
0044F400
00000055
00077084
00D02AAA
0044F413
00000030
00076284
0007E28C
000140C6
000000FF
000140C5
000000FF
000E2413
0044F400
000000F0
00077084
00D05555
00200013
0046F400
00010000
000464A2
0064F400
00D00000
00000000
0006C610
00000041
00228E00
0021A400
0007DC85
00000000
00200045
000D1042
00000004
00212500
00000000
002E0A00
0044F400
000000AA
00077084
00D05555
0044F400
00000055
00077084
00D02AAA
0021DA00
0044F413
000000A0
00077084
00D05555
00076285
0020A400
0007E28C
00200043
00000000
000ACC27
0000043F
00200013
0020AC00
000140C6
000000FF
00000000
00218400
0007E28C
000140C6
000000FF
00200045
000AF0AA
00000461
0044F400
000000AA
00077084
00D05555
0044F400
00000055
00077084
00D02AAA
0044F400
000000F0
00077084
00D05555
00234E00
00014184
000E2430
0072F400
00FFFFFF
003A0000
00000000
00000000
00000000
00205A00
00000000
00000000
000140C8
00070000
00000000
0021B200
0005F422
00FFFFFF
00200013
00212500
0007E28E
000140C6
000000FF
00000000
000C1FFC
0056F400
00F00000
000D1042
00000076
0062F400
00D00000
0005F422
00FFFFFF
0044F400
000000AA
00077084
00D05555
0044F400
00000055
00077084
00D02AAA
0044F400
00000080
00077084
00D05555
0044F400
000000AA
00077084
00D05555
0044F400
00000055
00077084
00D02AAA
0044F413
00000030
00076284
0007E28C
000140C6
000000FF
000140C5
000000FF
000E2494
0044F400
000000F0
00077084
00D05555
00200013
0046F400
00010000
000464A2
0064F400
00D70000
00000000
0006C610
0000003A
0007DC85
00000000
002E0A00
0044F400
000000AA
00077084
00D05555
0044F400
00000055
00077084
00D02AAA
0021DA00
0044F413
000000A0
00077084
00D05555
00076285
0020A400
0007E28C
00200043
00000000
000ACC27
000004B9
00200013
0020AC00
000140C6
000000FF
00000000
00218400
0007E28C
000140C6
000000FF
00200045
000AF0AA
000004DB
0044F400
000000AA
00077084
00D05555
0044F400
00000055
00077084
00D02AAA
0044F400
000000F0
00077084
00D05555
00234E00
00014184
000E24AA
0072F400
00FFFFFF
003A0000
00000000
00000000
00000000
00205A00
00000000
00000000
000140CC
00070000
00000000
0021B200
0005F422
00FFFFFF
00200013
00000000
0007E28E
000140C6
000000FF
0062FF00
0064FF00
000A8981
000004EF
0008CE0D
00000004
       7
P 0004F3
004D432E
00504349
005F5155
00205632
002E392E
0030342E
00333620
       4
P 0004FA
00203033
002E3034
002E3230
00313320
       1
P 0004FE
00000000
     269
P 0004FF
00525F00
00505F00
00545F00
00535F00
00515F00
00555F00
00445F00
00455F00
00625F00
00725F00
00055F22
00635F00
00735F00
00055F23
00645F00
00745F00
00055F24
00655F00
00755F00
00055F25
0005F422
00FFFFFF
000463A2
000464A2
000465A2
0008F4B8
00D00409
0008F4BE
00000000
0008F4BF
00000000
0007F40F
00000A00
0007F40B
00000A00
0007F407
00000A00
0007F40E
00000000
0007F40A
00000000
0007F406
00000000
0007F40D
00FFFFFF
0007F409
00FFFFFF
0007F405
00FFFFFF
0005F439
00000000
0008F4BE
00000301
0008F4BF
00000177
0007F08E
00D0FFFF
0007F084
00D0FFFE
000C1940
00008020
0007F084
00D0FFFD
000C1940
00008028
00000000
00218E00
0044F400
00D01000
000140C5
00D02000
00022040
00000000
00547000
00000072
00355500
00060C90
00000013
00200013
0056E500
000140C6
0000FFFF
0044F000
00000072
00200040
00000000
00219300
00000000
00000000
00200013
0007DB84
000C1940
00008018
00000000
00545D00
00000000
00000000
0056F000
00000063
000140C5
00060000
0005A49E
000140C5
00010000
0005A41B
000140C5
00002000
0005A410
00240000
0063F400
000001A4
00060290
00000004
00075B84
00000000
00000000
0056F400
00000100
0044F400
00000000
00445F00
00542500
00050D0F
0044F400
00000003
00445F00
0044F400
00000000
0045F400
00000000
00050C08
0044F400
00040003
00445F00
0044F400
00008000
0045F400
00004000
0056F000
00000064
0057F000
00000063
0054254C
000140C0
00000400
000140CC
00000400
005C7000
000000B9
005C7000
000000BA
00200010
00000000
005C7000
000000BB
00547000
00000402
00547000
00000406
00200040
00000000
00547000
00000404
00240000
00447000
00000400
0056F000
00000062
0044F000
00000061
00547000
00000401
00200040
00200064
00000000
00547000
00000403
00000000
00547000
000000F3
00547000
000000F2
00200060
00000000
00547000
000000F4
0044F400
00838000
004C7000
000000A6
0044F400
00008000
004C7000
000000A7
00050C87
0044F400
00000002
00445F00
0056F000
00000064
000140C0
00008000
0057F000
00000063
00547000
00000402
00547000
00000406
000140C0
00008000
00000000
00547000
00000404
00542500
000140C0
00000400
00000000
005C7000
000000B9
005C7000
000000BA
0056F000
00000064
00200010
00248000
005C7000
000000BB
004C7000
000000A6
0044F400
00008000
004C7000
000000A7
00240000
00447000
00000400
0056F000
00000062
0044F000
00000061
00547000
00000401
00547000
00000405
00200040
00000000
00547000
000000F4
000140C4
00008000
00000000
00547000
000000F3
00547000
000000F2
00547000
00000403
0044F400
00800000
004C7000
000000A6
0044F400
00008000
004C7000
000000A7
0056F000
00000072
000140C0
00000200
00000000
00219300
0056A500
000140C0
00000100
00000000
00542600
000140C0
00000100
0065A500
00542700
000140C0
00000100
0005F423
00FFFFFF
00542800
000465A3
00060094
00000008
000CC902
00000000
00084E0B
00000000
005C5D00
00000000
00000000
000D10C0
00000012
00060094
0000000F
00200013
0007DB84
000C1940
00008028
0007DB84
000C1940
00008020
0007DB84
000C1940
00008018
00000000
005C5D00
00000000
00000000
0063A500
0005F423
00FFFFFF
00060091
0000001B
005EE300
000140C5
00000001
00052405
0044F400
0000060C
004C6300
00050C11
000140C5
0000000A
00052408
0044F400
00000306
004C6300
00240000
000B7384
00000300
00050C07
000140C5
00000013
00052404
0044F400
00000101
004C6300
00205B00
00000000
0063A600
0005F423
00FFFFFF
00060091
00000018
005EE300
000140C5
00000001
00052405
0044F400
00000406
004C6300
00050C0E
000140C5
0000000F
00052405
0044F400
00000507
004C6300
00050C07
000140C5
0000001B
00052404
0044F400
00000101
004C6300
00205B00
00000000
0056F400
00000002
000D016D
00218400
0054FF00
00200042
00000000
00218800
0054F400
00000002
000D016F
0033DF00
0044F400
00000013
0005F423
00FFFFFF
0006C410
0000000F
0056E300
00000000
0044A700
00200040
00000000
00219400
00000000
00000000
00000000
005CE400
00000000
00545B00
00000000
00000000
0044F400
000BF080
00077084
00000084
0045F400
000001FA
00077085
00000085
00077084
00000086
0045F400
00000228
00077085
00000087
00077084
000000D4
0045F400
000002D4
00077085
000000D5
00077084
000000DE
0045F400
00000133
00077085
000000DF
0005FF25
0075FF00
0065FF00
0005FF24
0074FF00
0064FF00
0005FF23
0073FF00
0063FF00
0005FF22
0072FF00
0062FF00
0045FF00
0044FF00
0055FF00
0051FF00
0053FF00
0054FF00
0050FF00
0052FF00
0000000C
00445F00
00455F00
00615F00
00055F21
0044F400
000BF080
0045F400
0000016C
00310000
0005F421
00FFFFFF
00068090
00000003
00075984
00075985
00070004
0045F400
0000013E
00070105
00070A04
0045F400
0000013E
00070B05
00077084
00000080
0045F400
0086012F
00077085
00000081
00077084
00000082
0045F400
0086012F
00077085
00000083
00077084
00000088
0045F400
00000302
00077085
00000089
00077084
0000008A
0045F400
00000343
00077085
0000008B
00077084
0000008C
0045F400
00000358
00077085
0000008D
00077084
000000E6
0045F400
000001B9
00077085
000000E7
000A8520
0000FCB8
0005FF21
0061FF00
0045FF00
0044FF00
0000000C
00200013
00000000
0004C8A0
00000008
00000000
0004C8A1
00000008
00000000
0004C8A2
00000008
00000000
0004C8A3
00000008
00000000
0004C8A4
00000008
00000000
0004C8A5
00000008
00000000
0004C8A6
00000008
00000000
00000008
00000000
00211800
00000008
00000000
00211900
00000008
00000000
00211A00
00000008
00000000
00211B00
00000008
00000000
00211C00
00000008
00000000
00211D00
00000008
00000000
00211E00
00000008
00000000
00000008
00000000
00211000
00000008
00000000
00211100
00000008
00000000
00211200
00000008
00000000
00211300
00000008
00000000
00211400
00000008
00000000
00211500
00000008
00000000
00211600
00000008
00000000
00000008
00000000
00210400
00000008
00000000
00210500
00000008
00000000
00210600
00000008
00000000
00210700
00000008
00000000
00210900
00000008
00000000
00210D00
00000008
00000000
00210B00
00000008
00000000
00210A00
00000008
00000000
00210C00
00000008
00000000
00210800
0000000C
       1
P 860000
00050C00
     11E
P 860001
00525F00
00545F00
00505F00
000A8982
00860004
00084E0B
00445F32
000140C4
00000001
0044F400
000000FE
0002F040
000140C5
00000037
00027040
00635F00
00219300
00055F23
00735F00
00000000
000D1BC0
000AF080
0086189F
000AF080
00861A9F
000AF080
00861AAB
000AF080
00861B16
000AF080
00861BBE
000AF080
00861AB1
000AF080
00861B10
000AF080
00861BFE
000AF080
008623D4
000AF080
0086194A
000AF080
008619F5
000AF080
00862528
000AF080
0086262F
000AF080
0086267D
000AF080
0086268A
000AF080
0086269B
000AF080
008626A2
000AF080
008626C1
000AF080
008626C9
000AF080
00860117
000AF080
008626D1
000AF080
00860117
000AF080
00860117
000AF080
00861AE8
000AF080
00860117
000AF080
00860117
000AF080
00860117
000AF080
00861AC8
00525F00
00545F00
00505F00
000A8982
00860051
00084E0B
00445F32
000140C4
00000001
0044F400
000000B1
0002F040
000140C5
00000017
00027040
00635F00
00219300
00055F23
00735F00
00000000
000D1BC0
000AF080
008626E1
000AF080
008627EA
000AF080
0086282F
000AF080
008626DB
000AF080
00862835
000AF080
00862888
000AF080
00862818
000AF080
008628C7
000AF080
008628DF
000AF080
00862A2D
000AF080
00862A05
000AF080
00865329
00525F00
00545F00
00505F00
000A8982
0086007E
00084E0B
00445F32
000140C4
00000001
0044F400
00000084
0002F040
000140C5
00000013
00027040
00635F00
00219300
00055F23
00735F00
00000000
000D1BC0
000AF080
0086276F
000AF080
00862801
000AF080
00860113
000AF080
00860113
000AF080
00862866
000AF080
008628AA
000AF080
00862824
000AF080
00860113
000AF080
00862A75
000AF080
00862A4D
00525F00
00545F00
00505F00
000A8982
008600A7
00084E0B
00445F32
000140C4
00000001
0044F400
0000005B
0002F040
000140C5
0000001D
00027040
00635F00
00219300
00055F23
00735F00
00000000
000D1BC0
000AF080
00862AB9
000AF080
00862B23
000AF080
00862B43
000AF080
00862AB3
000AF080
00862B49
000AF080
00862B8A
000AF080
00862B9C
000AF080
00862BB3
000AF080
00862C80
000AF080
00862CD6
000AF080
00862BCF
000AF080
00862CC7
000AF080
00862CE4
000AF080
00000133
000AF080
00862CEE
00525F00
00545F00
00505F00
000A8982
008600DA
00084E0B
00445F32
000140C4
00000001
0044F400
00000028
0002F040
000140C5
00000005
00027040
00635F00
00219300
00055F23
00735F00
00000000
000D1BC0
000AF080
00862DD8
000AF080
00862EE7
000AF080
0086307A
00525F00
00545F00
00505F00
000A8982
008600F5
00084E0B
00445F32
000140C4
00000001
0044F400
0000000D
0002F040
000140C5
0000000B
00027040
00635F00
00219300
00055F23
00735F00
00000000
000D1BC0
000AF080
008630AA
000AF080
008630BE
000AF080
008630CF
000AF080
008630E9
000AF080
00863103
000AF080
008630B7
000A8981
00860113
0008F48D
00000010
0073FF00
0005FF23
0063FF00
0044FF00
0050FF00
0054FF00
0052FF00
00000004
    16AB
P 86011F
000A8981
0086011F
0008F0CD
00000000
000AF080
00860117
000A8982
00860125
000870CB
00000043
000A8981
00860129
0008F48D
00000000
000AF080
00860117
00615F00
000A8982
00860130
0008510B
00000000
00000000
00000000
000D19C0
000D10C0
000001B2
000D10C0
0000017A
000D10C0
00000193
000D10C0
000001C7
000D10C0
000000FF
000D10C0
00000133
000D10C0
00000156
000D10C0
00000004
000D10C0
000001C4
000A8981
00860149
0008C40D
00000000
00000000
000A8981
0086014E
0008C50D
00000000
00000000
000A8981
00860153
0008C60D
00000000
00000000
000A8981
00860158
0008C70D
00000000
00000000
000A8981
0086015D
0008CA0D
00000000
00000000
000A8981
00860162
0008CC0D
00000000
00000000
000A8981
00860167
0008C80D
00000000
00000000
000A8981
0086016C
0008CB0D
00000000
00000000
000A8981
00860171
0008CD0D
00000000
00000000
000A8981
00860176
0008C90D
00000000
00000000
000A8981
0086017B
0008D70D
00000000
00000000
000A8981
00860180
0008D60D
00000000
00000000
000A8981
00860185
0008D50D
00000000
00000000
000A8981
0086018A
0008D40D
00000000
00000000
000A8981
0086018F
0008D30D
00000000
00000000
000A8981
00860194
0008D20D
00000000
00000000
000A8981
00860199
0008D10D
00000000
00000000
0061FF00
000A8981
0086019F
0008D00D
00000000
00000000
000A8981
008601A4
0008DF0D
00000000
00000000
000A8981
008601A9
0008DE0D
00000000
00000000
000A8981
008601AE
0008DD0D
00000000
00000000
000A8981
008601B3
0008DC0D
00000000
00000000
000A8981
008601B8
0008DB0D
00000000
00000000
000A8981
008601BD
0008DA0D
00000000
00000000
000A8981
008601C2
0008D90D
00000000
00000000
000A8981
008601C7
0008D80D
00000000
00000000
000A8981
008601CC
0008E70D
00000000
00000000
000A8981
008601D1
0008E60D
00000000
00000000
000A8981
008601D6
0008E50D
00000000
00000000
000A8981
008601DB
0008E40D
00000000
00000000
000A8981
008601E0
0008E30D
00000000
00000000
000A8981
008601E5
0008E20D
00000000
00000000
000A8981
008601EA
0008E10D
00000000
00000000
000A8981
008601EF
0008E00D
00000000
00000000
00445F00
000444AA
000A8981
008601F6
0008C40D
00000000
00000000
000444B0
000A8981
008601FC
0008C40D
00000000
00000000
000444B1
000A8981
00860202
0008C40D
00000000
00000000
000444B8
000A8981
00860208
0008C40D
00000000
00000000
000444B9
000A8981
0086020E
0008C40D
00000000
00000000
000444BA
000A8981
00860214
0008C40D
00000000
00000000
000444BB
000A8981
0086021A
0008C40D
00000000
00000000
000A8981
0086021F
0008F48D
00000000
00000000
00000000
000A8981
00860225
0008F48D
00000000
00000000
00000000
000444BE
000A8981
0086022C
0008C40D
00000000
00000000
000444BF
000A8981
00860232
0008C40D
00000000
00000000
000A8981
00860237
0008F48D
00000000
0044FF00
000D10C0
000000CF
00055F21
00445F00
00515F00
00555F00
00535F00
0020001B
0005F421
00FFFFFF
000A8982
00860246
0008510B
000A8982
00860249
0008440B
0006C410
0000001B
00222F00
0044F400
00FFFFCB
0020004D
000D104A
00000011
0044F400
00FFFFCC
0020004D
000D104A
0000000C
0044F400
00FFFFCD
0020004D
000D104A
00000007
000A8981
0086025E
0008D98D
000D10C0
00000006
000A8981
00860263
0008D10D
00205900
00000000
000A8981
00860268
0008F48D
00000000
0053FF00
0055FF00
0051FF00
0044FF00
0005FF21
0061FF00
000D10C0
00000099
00055F21
00445F00
0005F421
00FFFFFF
00515F00
00555F00
00535F00
000A8982
0086027B
0008510B
000A8982
0086027E
0008440B
0006C410
0000000B
000A8981
00860283
0008D9CD
000D10C0
00000006
000A8981
00860288
0008D10D
00205900
00000000
000A8981
0086028D
0008F48D
00000000
0053FF00
0055FF00
0051FF00
0044FF00
0005FF21
0061FF00
000D10C0
00000074
00055F21
00445F00
0005F421
00FFFFFF
000A8982
0086029D
0008510B
000A8982
008602A0
0008440B
0006C410
00000006
0007D984
000A8981
008602A6
0008C40D
00000000
000A8981
008602AA
0008F48D
00000000
0044FF00
0005FF21
0061FF00
000D10C0
0000005A
00055F21
00445F00
0005F421
00FFFFFF
000A8982
008602B7
0008510B
000A8982
008602BA
0008440B
00000000
0006C410
00000006
00000000
000A8982
008602C1
0008598B
00000000
000A8981
008602C5
0008F48D
00000000
0044FF00
0005FF21
0061FF00
000D10C0
0000003F
00055F21
00445F00
0005F421
00FFFFFF
000A8982
008602D2
0008510B
000A8982
008602D5
0008440B
00000000
0006C410
00000006
00000000
000A8982
008602DC
000859CB
00000000
000A8981
008602E0
0008F48D
00000000
0044FF00
0005FF21
0061FF00
000D10C0
00000024
00055F21
00445F00
0005F421
00FFFFFF
000A8982
008602ED
0008510B
000A8982
008602F0
0008440B
00000000
0006C410
00000006
00000000
000A8982
008602F7
0008440B
00075984
000A8981
008602FB
0008F48D
00000000
0044FF00
0005FF21
0061FF00
000D10C0
00000009
000A8982
00860304
0008540B
000A8981
00860307
0008F48D
00000000
00000004
000A8982
0086030C
0008440B
004C3E00
000ABF06
000ABF07
000CC480
000000B2
000CC4B6
00000004
000CC4B7
00000091
000ABF06
000ABF07
000ABF08
000A1D6E
000C9DCC
00000087
000C9DF1
0000003E
0005F423
00FFFFFF
006BF013
00000068
0073F400
00000015
00000000
00000000
00000000
0007EB8C
000140C6
00FFC0FF
000140C2
00001500
00000000
00076B8C
006BF013
00000069
0073F400
00000015
00000000
00000000
00000000
0007EB8C
000140C6
00FFC0FF
000140C2
00001500
00000000
00076B8C
006BF013
0000006A
0073F400
0000001E
00000000
00000000
00000000
0007EB8C
000140C6
00FFC0FF
000140C2
00001500
00000000
00076B8C
006BF013
0000006B
0073F400
00000014
00000000
00000000
00000000
0007EB8C
000140C6
00FFC0FF
000140C2
00001500
00000000
00076B8C
000D10C0
0000003C
0005F423
00FFFFFF
006BF013
00000068
0073F400
00000015
00000000
00000000
00000000
0007EB8C
000140C6
00FFC0FF
000140C2
00001500
00000000
00076B8C
006BF013
00000069
0073F400
00000015
00000000
00000000
00000000
0007EB8C
000140C6
00FFC0FF
000140C2
00001500
00000000
00076B8C
006BF013
0000006A
0073F400
0000001E
00000000
00000000
00000000
0007EB8C
000140C6
00FFC0FF
000140C2
00001500
00000000
00076B8C
006BF013
0000006B
0073F400
00000014
00000000
00000000
00000000
0007EB8C
000140C6
00FFC0FF
000140C2
00001500
00000000
00076B8C
006B9A00
0007A404
0007A50E
000140C4
00000001
00071404
0007150C
00205B00
005EE300
000140C4
00001000
00000000
005E6300
004CBE00
000CC4B6
00000003
00050C5F
004CBE00
000CC4B6
00000012
000A1D6D
0054F400
000BF080
00000000
0007140C
00000000
0054F400
008603EB
00000000
0007150C
00094E02
000140C2
00001004
000ABF26
0009CC02
00050C0B
000A1D6D
0054F400
000BF080
00000000
0007160C
00000000
0054F400
008603EB
00000000
0007170C
004CBE00
000CC481
00000011
000CC4B7
00000008
000A1B36
0007A804
00071404
0007A904
00071504
00050C08
000A1B35
0044F400
000BF080
00071404
0044F400
008603EB
00071504
004CBE00
000CC482
0000000E
000CC4B7
00000005
00000000
00000000
00050C08
000A2435
0044F400
000BF080
00071404
0044F400
008603EB
00071504
000A8981
008603E5
0008F48D
00000000
000AF080
00860117
000B8541
000CBEF6
00000012
000ABF06
000ABF07
000ABF08
000A8242
000A824C
000CBEC0
00000013
000B8540
000C9DEC
00000006
0007F40F
00000A11
000D10C0
0000000C
0007F40F
00000A15
000C9DCC
00000008
000ABF07
000ABF26
000ABF28
000A8262
000A826C
00050C01
000CBEC1
00000004
0007F40B
00000A15
000CBEC2
0000000C
000A826B
000A8242
00044E85
00200022
00000000
0004CC84
0007F407
00000A15
000AF080
0000018D
00000004
00605F00
00705F00
00055F20
00615F00
00715F00
00055F21
00625F00
00725F00
00055F22
00645F00
00745F00
00055F24
00655F00
00755F00
00055F25
00665F00
00765F00
00055F26
00535F00
00515F00
00555F00
00445F00
00455F00
00465F00
00475F00
0044F000
0000004B
00445F00
0044F000
0000004C
00445F00
0005F420
00FFFFFF
000461A0
000462A0
000464A0
000465A0
000466A0
00240000
00447000
0000004B
00447000
0000004C
000A1D4C
000C9DC8
00000003
000A1D6C
0056F400
00000009
000D016D
000140C6
0000003F
000140C5
00000008
000D1042
00000008
000A1D6C
0056F400
0000007E
00000000
0004CC7A
00000000
005E9F00
005E8403
000D104A
00000003
000A1D6C
005E9903
000D104A
00000003
000A1D6C
00448700
00200040
00014085
000D104A
000008AA
000A7037
0000004B
000A1D51
000CC150
00000003
000A1D71
000D9DCC
00000E22
000D9DEC
00000DC4
00014085
0005A405
000A7037
0000004C
000D10C0
0000089A
000A7036
0000004B
000A7035
0000004B
005EF000
000000B8
00014184
000C1EC2
00061790
00000007
00014085
000444BF
0000021A
00000000
000C1EC2
00000000
0056F400
00000018
00200044
00000000
005C7000
000000B8
000C9DCC
00000519
00568700
004C9900
00200040
00000000
005E2E00
0063F000
000000E1
00000000
000A1D51
000CA350
00000003
000A1D71
0005F423
00FFFFFF
006BF000
000003F7
0056F400
00000800
00226400
00248044
00000000
0006CC20
004C5B00
0062F000
00000040
006CF000
00000046
0005F422
00FFFFFF
0005F424
00FFFFFF
00000000
00000000
00000000
000212D4
000214D6
000A72E2
00000002
000A74E4
00000002
0072F400
00000006
0074F400
00000006
00209200
0020D400
006BF000
000003F7
0005F423
00FFFFFF
006B1A00
00200013
00000000
0021C600
00568700
00205B00
00205B00
00204A00
00205200
0006CC10
0000001A
0003EADE
0003FAD6
00218700
0056F400
00000001
0044CA00
000C1E48
00000000
000140C4
00000001
0045F400
00000008
0006CC10
00000003
004F5B00
004D5B00
0045F400
0000000C
004F5B00
000CC6B7
00000003
000AC565
004D5B00
00000000
00000000
006B7000
000003F7
006B9A00
00200013
00000000
0021C600
005E9900
00205B00
00205B00
00204C00
00205400
0006CC10
00000033
0003ECDE
0003FCD6
000C1E90
00000000
00218700
0056F400
00000001
0044CC00
000C1E48
000140C4
00000001
0006CC10
00000011
00200071
000CA377
00000005
005EE300
00200072
00000000
005C5B00
0045F400
00000002
000CA377
00000006
005EE300
00200062
00000000
00218500
004D5B00
00200071
000CA377
00000005
005EE300
00200072
00000000
005C5B00
0045F400
00000003
000CA377
00000006
005EE300
00200062
00000000
00218500
000CC6B7
00000003
000AC564
004D5B00
00000000
00000000
00226E00
004CF000
000003F7
00200045
00202941
004C9A00
005C7000
000003F7
005C1B44
00200022
00000000
005C1C00
000140C4
00000001
00000000
00218600
00200032
000140C4
00000001
00000000
00218400
005E9A00
000140C0
00000002
00000000
00219B00
0056F400
00000002
0045F400
00000003
000B1D71
00028060
00000000
0006CC10
0000001A
0005F423
00FFFFFF
00330000
00000000
00000000
00000000
004DEB00
0004C4A3
0006C610
0000000E
00205361
00205300
0005F423
00FFFFFF
00000000
00000000
00000000
004DEB00
005C6B00
0004C4A3
00000000
00000000
00000000
00000000
00000000
00208E00
000140C0
00000002
00000000
0021C400
0020CE00
000140C0
00000001
00000000
0021C600
00236E00
000140C4
00000002
00330000
0021DB00
0005F423
00FFFFFF
00000000
00000000
00000000
00205B00
004DEB00
0004C4A3
0006C610
0000000E
00205B61
00205B00
0005F423
00FFFFFF
00000000
00000000
00000000
004DEB00
005C6B00
0004C4A3
00000000
00000000
00000000
0005F423
00FFFFFF
006B9A00
0073F400
00800000
004C9C00
00000000
00205B00
0006C410
00000116
004CE300
00200041
00200032
000140C0
00000001
000140C6
0000007F
00000000
00219200
00000000
00000000
00000000
000D1AC0
000D10C0
00000080
000D10C0
0000007E
000D10C0
00000098
000D10C0
0000008E
000D10C0
00000078
000D10C0
00000076
000D10C0
00000074
000D10C0
00000072
000D10C0
0000007C
000D10C0
0000006E
000D10C0
000000A8
000D10C0
00000096
000D10C0
0000006C
000D10C0
00000066
000D10C0
00000088
000D10C0
00000096
000D10C0
00000060
000D10C0
0000005E
000D10C0
0000005C
000D10C0
0000009E
000D10C0
00000058
000D10C0
00000056
000D10C0
00000054
000D10C0
00000052
000D10C0
00000050
000D10C0
0000004E
000D10C0
0000004C
000D10C0
00000096
000D10C0
00000048
000D10C0
00000046
000D10C0
00000044
000D10C0
000000A6
000D10C0
00000040
000D10C0
0000003E
000D10C0
0000003C
000D10C0
0000003A
000D10C0
00000038
000D10C0
00000036
000D10C0
00000034
000D10C0
00000032
000D10C0
00000030
000D10C0
0000002E
000D10C0
0000002C
000D10C0
0000002A
000D10C0
0000007C
000D10C0
00000026
000D10C0
00000080
000D10C0
0000008E
000D10C0
00000020
000D10C0
0000001E
000D10C0
0000001C
000D10C0
0000001A
000D10C0
00000018
000D10C0
00000016
000D10C0
00000014
000D10C0
00000012
000D10C0
00000010
000D10C0
0000000E
000D10C0
0000000C
000D10C0
0000000A
000D10C0
00000008
000D10C0
00000006
000D10C0
00000004
000D10C0
00000076
00260000
00250000
000D10C0
00000078
004EF000
0000005D
004DF000
00000065
005EF000
00000068
000D10C0
00000070
004EF000
0000005E
004DF000
00000065
005EF000
00000068
000D10C0
00000068
004EF000
0000005F
004DF000
00000066
005EF000
00000069
000D10C0
00000060
004EF000
00000060
004DF000
00000066
005EF000
00000069
000D10C0
00000058
004EF000
00000063
004DF000
00000067
005EF000
0000006A
000D10C0
00000050
004EF000
00000062
004DF000
00000067
005EF000
0000006A
000D10C0
00000048
004EF000
00000064
004DF000
00000067
005EF000
0000006A
000D10C0
00000040
004EF000
00000061
004DF000
00000067
005EF000
0000006A
000D10C0
00000038
004EF000
0000006C
004DF000
00000066
005EF000
00000069
000D10C0
00000030
004EF000
0000006E
004DF000
00000067
005EF000
0000006A
000D10C0
00000028
004EF000
0000006D
004DF000
00000065
005EF000
00000068
000D10C0
00000020
004EF000
0000006F
004DF000
00000067
005EF000
0000006A
000D10C0
00000018
004EF000
00000071
004DF000
00000067
005EF000
0000006A
000D10C0
00000010
004EF000
00000072
004DF000
00000067
005EF000
0000006A
000D10C0
00000008
004EF000
00000070
004DF000
00000067
005EF000
0000006A
000ADB57
000D1048
00000008
00200061
000ADB76
000D1048
00000004
005EF000
0000006B
000C1E98
00200052
00000000
005C5B00
00205B00
005E9C00
00000000
00218600
00200032
000140C4
00000001
0005F423
00FFFFFF
00218400
005E9A00
00330000
00219B00
00000000
00000000
00000000
00205B00
004DEB00
0004C4A3
0006C610
00000011
00205300
00205300
0005F423
00FFFFFF
00000000
00000000
00000000
004DEB61
000C1960
0000C018
00000000
005C6B00
0004C4A3
00000000
00000000
00000000
005E9C00
000140C4
00000002
00000000
00218600
0005F423
00FFFFFF
006B9A00
0047F400
00000001
00000000
00000000
00205B00
005EE300
00200074
00000000
005C5B00
00205B00
004DDB00
0006C610
0000000A
00205B00
004DE361
00200063
000140C6
00FFF000
00200061
00202274
00000000
005C5B00
0005F422
00FFFFFF
0062F000
00000040
000464A2
00000000
00000000
000A72D2
00000005
0072F400
00000006
0064F000
00000767
00448700
00640600
0006C410
00000015
0056F400
00000800
000C9DD1
00000003
000C1C08
000212D4
000C1E68
00000000
00545C00
00021294
00204A00
000CC4B7
00000007
0056F400
00000FFF
00200046
00000000
00545C00
00000000
00000000
00647000
00000767
0005F422
00FFFFFF
006AF000
00000046
000464A2
00000000
00000000
000A72D2
00000005
0072F400
00000006
006CF000
000003F7
004C9900
006C1200
0006C410
00000015
0056F400
00000800
000C9DD1
00000003
000C1C08
000212D4
000C1E68
00000000
005C5C00
00021294
00204A00
000CC4B7
00000007
0056F400
00000FFF
00200046
00000000
005C5C00
00000000
00000000
006C7000
000003F7
005E9F00
006CF003
00000047
000D104A
000000E5
0005F424
00FFFFFF
006AF000
000003F7
0005F422
00FFFFFF
006A2000
000214D4
000A74E4
00000002
0074F400
00000006
00209400
004C9F00
004C5A00
00061F50
000000D1
0002049E
000C1EE6
000140C6
0000000F
000140C2
00000001
0044F400
00000009
00200045
00202741
00000000
00219300
0002049E
00000000
000D1BC0
000D10C0
000000BF
000D10C0
00000008
000D10C0
00000025
000D10C0
00000043
000D10C0
00000057
000140C6
0000001F
00014F85
0044F400
00000010
004C5A00
000D1047
0000000A
0056F400
00000038
000BF080
00863754
005C5A00
0002049E
000AF080
00860777
0056F400
00000039
000BF080
00863754
005C5A00
0002049E
00015084
000140C6
0000001F
000140C2
00001000
00000000
005C5A00
000AF080
00860815
000140C6
00000007
00014185
0044F400
00000007
004C5A00
000D1047
0000000A
0056F400
00000038
000BF080
00863754
005C5A00
0002049E
000AF080
00860796
0056F400
00000039
000BF080
00863754
005C5A00
0002049E
00014284
000C1D06
000140C6
0000001F
000140C2
00008000
00000000
005C5A00
000AF080
00860815
000140C6
00000001
0044F403
00000001
004C5A00
000D1042
00000008
0056F400
00000038
000BF080
00863754
000AF080
008607B0
0056F400
00000038
000BF080
00863754
005C5A00
00205A00
000AF080
00860815
00000004
0056F000
00000059
0044F000
00000058
00200045
00202941
0044F000
000000D6
00200040
00014184
00000000
0021C400
0002049E
00000000
000140C6
0000001F
00200045
00000000
00218413
000141C2
00000004
00200022
00000008
00000000
00211300
0044F400
00000001
004C5A00
00000000
000D1BC0
0056F400
00000050
000D10C0
0000003C
0056F400
00000052
000D10C0
00000038
0056F400
00000054
000D10C0
00000034
0056F400
00000056
000D10C0
00000030
0056F400
00000058
000D10C0
0000002C
0056F400
0000005A
000D10C0
00000028
0056F400
0000005C
000D10C0
00000024
0056F400
0000005E
000D10C0
00000020
0056F400
00000060
000D10C0
0000001C
0056F400
00000062
000D10C0
00000018
0056F400
00000064
000D10C0
00000014
0056F400
00000066
000D10C0
00000010
0056F400
00000068
000D10C0
0000000C
0056F400
0000006A
000D10C0
00000008
0056F400
0000006C
000D10C0
00000004
0056F400
0000006E
000BF080
00863754
005C5A00
00205A00
00204C00
00000000
006A7000
000003F7
00200013
004CAE00
005EF000
00000057
00200026
00000000
0021C800
002C0000
00200032
000618A0
00018040
00000000
00210E00
000140C6
00FFFFFE
00200023
00000000
00200003
00052404
0056F400
00000001
00000000
005E2C00
005E2D00
0021C600
002000D0
00000000
00210E00
000140C4
00000001
00000000
005C1000
004CF000
000000B8
0056F400
00000001
000C1E18
00200026
00000000
0021C800
002C0000
00200032
000618A0
00018050
00000000
00210E00
000140C6
00FFFFFE
00000000
0021C400
002000D0
00000000
00210E00
00200023
00000000
005E2200
000140C4
00000001
00000000
005E2300
005EA300
000C1EC2
00061790
00000007
00014085
000444BF
0000021A
00000000
000C1EC2
00000000
0056F400
00000018
00200044
00000000
0021C400
000BF080
008635AE
006B7000
0000004D
005EAE00
00014184
000140C5
00000020
000D1049
00000010
00208F00
000140C8
00000001
00200022
0021E400
000140C5
0000001F
000D1049
00000007
00208F00
000140C8
00000001
00200022
0021E400
0006CC10
00000004
000BF080
008635AE
00000000
005E9F00
00200003
000D104A
0000000E
000BF080
008635AE
006B7000
00000058
005E9F00
00014184
00000000
0006CC10
00000004
000BF080
008635AE
00000000
005EF000
00000057
00014184
00000000
000C1EC2
00061790
00000007
00014085
000444BF
0000021A
00000000
000C1EC2
00000000
0056F400
00000018
00200044
00000000
0021C400
000BF080
00863673
006B1E00
000C9DD1
0000003F
0005F423
00FFFFFF
0073F400
00000000
006BF000
00000065
0044F400
0000000B
000BF080
008608DE
006BF000
00000066
0044F400
0000000C
000BF080
008608DE
006BF000
00000067
0044F400
0000000B
000BF080
008608DE
00205B00
00205B00
0044F400
0000000C
000BF080
008608DE
006BF000
00000068
0044F400
0000000B
000BF080
008608DE
006BF000
00000069
0044F400
0000000C
000BF080
008608DE
006BF000
0000006A
0044F400
0000000B
000BF080
008608DE
00205B00
00205B00
0044F400
0000000C
000BF080
008608DE
000AF080
008608E5
0007EB8E
000140C6
00FFFFC0
00200042
00000000
00076B8C
0000000C
0062F000
00000040
006CF000
00000046
0005F422
00FFFFFF
0005F424
00FFFFFF
00000000
00000000
00000000
000212D4
000214D6
000A72E2
00000002
000A74E4
00000002
0072F400
00000006
0074F400
00000006
00209200
0020D400
00448713
0006C410
00000006
000212D4
0057F400
00000001
000C1E19
00204A10
004E9900
0006C610
00000006
000214D6
0057F400
00000001
000C1E1B
00204C10
00000000
005E7000
00000048
004E8400
00200051
00200003
000D104A
00000008
0050F400
00000045
0054F400
00000052
000D1080
00003085
000CC697
00000074
0044F400
00000008
0056F400
00000001
000C1E48
0045F400
00000006
00200026
00000000
0021C800
002C0000
00200032
000618A0
00018060
00000000
00210E00
00000000
00218400
002000A0
0044F422
00000008
00000000
00580700
0000000A
00000000
00580600
0005F423
00FFFFFF
004FF000
00000305
00200013
0063F400
00000307
0056F400
00000001
000C1E18
003B0600
0021C500
005EF000
00000300
0006CE10
0000001F
00200013
000213BC
00000000
000CCCAA
0000001A
00014F86
00200045
000D1041
00000016
000213FE
00200075
000D1047
00000003
0021C700
00200060
00000000
000213EE
000213BE
00000000
000CCE8B
0000000A
000203FE
00200060
00000000
000203EE
000203BE
00200060
00000000
000203AE
00204B00
0020BB00
00000000
0020AE00
00000000
00020BEE
00014184
000203E7
000203A7
00020BAE
00208E00
000140C2
00000860
000213E7
000213AC
005EF000
00000305
00200074
00014180
00226700
006BF000
00000305
0006CC10
00000004
0045E300
00456B00
00205300
00236E00
004DF000
00000305
00200060
00000000
005E7000
00000305
0058F000
00000300
00000008
0020F300
00587000
00000300
006B7000
0000005A
004E8400
000CC691
00000003
004E8400
000CC690
00000003
004E8400
000CC68F
00000003
004E8400
000CC695
00000003
004E8400
000CC687
00000003
004E8400
000CC689
00000003
004E8400
000D10C0
00000233
00568700
004C9900
00200040
00000000
005E2E00
0063F000
000000E1
00000000
000A1D51
000CA350
00000003
000A1D71
0005F423
00FFFFFF
006BF000
000003F7
0056F400
00000800
00226400
00248044
00000000
0006CC20
004C5B00
0062F000
00000040
006CF000
00000046
0005F422
00FFFFFF
0005F424
00FFFFFF
00000000
00000000
00000000
000212D4
000214D6
000A72E2
00000002
000A74E4
00000002
0072F400
00000006
0074F400
00000006
00209200
0020D400
006BF000
000003F7
0005F423
00FFFFFF
006B1500
00204A00
00205200
00205B00
00060710
0000000B
0003EAD4
0046CA00
0056F400
00000001
000C1E4A
00000000
0006CC20
004C5B00
00000000
00000000
00227B00
006BF000
000003F7
00204C00
00205400
00000000
00205B00
00061950
00000015
0003ECDE
000C1E90
0046CC00
00218400
0056F400
00000001
000C1E4A
00000000
0006CC10
00000009
005EE300
00000000
000CCC97
00000003
00200041
00200042
00000000
005C5B00
00000000
00000000
00226E00
00236400
004EF045
000003F7
00202941
0020D300
005C7054
000003F7
000140C4
00000001
00000000
00000000
005C6300
006BF000
000003F7
0056F400
00000800
00226400
00248044
00000000
0006CC20
004C5B00
0062F000
00000040
006CF000
00000046
0005F422
00FFFFFF
0005F424
00FFFFFF
00000000
00000000
00000000
000212D4
000214D6
000A72E2
00000002
000A74E4
00000002
0072F400
00000006
0074F400
00000006
00209200
0020D400
006BF000
000003F7
0005F423
00FFFFFF
00204A00
00205200
006B1A00
00205B00
00205B00
00060710
00000010
0046CA00
0056F400
00000001
000C1E4A
00014184
004EF000
00000073
0006CE10
00000003
004E5B00
00205B00
004EF000
00000075
004E5B00
00205B00
00227B00
006BF000
000003F7
00204C00
00205400
00205B00
00205B00
00205B00
00061950
00000010
0046CC00
0056F400
00000001
000C1E4A
00014184
004EF000
00000074
0006CE10
00000003
004E5B00
00205B00
004EF000
00000076
004E5B00
00205B00
00226E00
006BF000
000003F7
00236600
00200055
00202951
00205B00
00205B00
00226600
0021C654
00000000
0006CC10
00000011
000C9B57
0000000E
00226451
00200044
00000000
0000021F
0006CE10
00000003
004DDB00
0003FBA5
00209351
00014184
00000000
0021C600
00000000
00000000
00205300
006B7000
000003F7
00226E00
004C9A00
00209344
000140C4
00000002
00000000
00218500
0056F400
000000FA
00200026
00000000
0021C800
002C0000
00200032
000618A0
00018060
00000000
00210E00
00000000
005C5B00
004D5B00
004D7000
00000048
0007F08E
00D0FFFF
0007F085
00D0FFFE
000C1960
00008020
0007F085
00D0FFFD
000C1960
00008028
000140C0
00000155
0005F422
00FFFFFF
00219200
003B0000
00000000
00000000
0007E285
000CC580
00000003
003B0100
0005F422
00FFFFFF
006A9500
0046F400
00000001
000C9DD1
00000004
0046F400
00000002
005EDA00
000140C4
00000001
000D104A
0000002A
00225A00
0004CCA3
000140C0
00000001
00330000
0006CC10
00000020
0006C620
00205300
00227200
0006C620
00205B00
00000000
004CEA00
00227200
0056F400
00000078
00000000
004DEA00
00200046
00200003
000D104A
00000003
000AC56F
0056F400
00007800
00200046
00200003
000D104A
00000008
000CDB80
00000005
000AC570
000D10C0
00000003
000AC56F
004D6A00
00205B00
000D10C0
00000016
0056F400
00000078
004DE200
00200066
00200003
000D104A
00000003
000A626F
0056F400
00007800
00200066
00200003
000D104A
00000008
000CDB80
00000005
000A6270
000D10C0
00000003
000A626F
0005F422
00FFFFFF
0062F000
00000040
000464A2
00000000
00000000
000A72D2
00000005
0072F400
00000006
0064F000
00000767
00448700
00640600
0006C410
00000015
0056F400
00000800
000C9DD1
00000003
000C1C08
000212D4
000C1E68
00000000
00545C00
00021294
00204A00
000CC4B7
00000007
0056F400
00000FFF
00200046
00000000
00545C00
00000000
00000000
00647000
00000767
0005F422
00FFFFFF
006AF000
00000046
000464A2
00000000
00000000
000A72D2
00000005
0072F400
00000006
006CF000
000003F7
004C9900
006C1200
0006C410
00000015
0056F400
00000800
000C9DD1
00000003
000C1C08
000212D4
000C1E68
00000000
005C5C00
00021294
00204A00
000CC4B7
00000007
0056F400
00000FFF
00200046
00000000
005C5C00
00000000
00000000
006C7000
000003F7
00200013
004CAE00
005EF000
00000057
00200026
00000000
0021C800
002C0000
00200032
000618A0
00018040
00000000
00210E00
000140C6
00FFFFFE
00200023
00000000
00200003
00052404
0056F400
00000001
00000000
005E2C00
005E2D00
0021C600
002000D0
00000000
00210E00
000140C4
00000001
00000000
005C1000
004CF000
000000B8
0056F400
00000001
000C1E18
00200026
00000000
0021C800
002C0000
00200032
000618A0
00018050
00000000
00210E00
000140C6
00FFFFFE
00000000
0021C400
002000D0
00000000
00210E00
00200023
00000000
005E2200
000140C4
00000001
00000000
005E2300
005EA300
000C1EC2
00061790
00000007
00014085
000444BF
0000021A
00000000
000C1EC2
00000000
0056F400
00000018
00200044
00000000
0021C400
000BF080
008635AE
006B7000
0000004D
005EAE00
00014184
000140C5
00000020
000D1049
00000010
00208F00
000140C8
00000001
00200022
0021E400
000140C5
0000001F
000D1049
00000007
00208F00
000140C8
00000001
00200022
0021E400
0006CC10
00000004
000BF080
008635AE
00000000
005E9F00
00200003
000D104A
0000000E
000BF080
008635AE
006B7000
00000058
005E9F00
00014184
00000000
0006CC10
00000004
000BF080
008635AE
00000000
005EF000
00000057
00014184
00000000
000C1EC2
00061790
00000007
00014085
000444BF
0000021A
00000000
000C1EC2
00000000
0056F400
00000018
00200044
00000000
0021C400
000BF080
00863673
006B1E00
005EF000
000000A8
000A1D4B
006EF003
000000A9
000D104A
000000AD
0054F400
0000002A
0050F400
00000045
000BF080
0086399D
00200003
0054F400
0000002C
0050F400
00000045
000BF080
0086399D
00200003
000ABF12
000ABF13
000C9DE7
00000006
0054F400
0000002E
000D10C0
00000005
000ABF32
0054F400
0000002E
0050F400
00000045
000BF080
0086399D
00200003
000A1D6B
0005F422
00FFFFFF
006CF000
000003F7
000464A2
000465A2
006C3A00
000A76D2
00000001
005EF000
000000A8
005E5C00
0006CE10
00000079
0056E200
00250003
000AF0AA
00860C0C
000AC574
004D5C00
00020A94
000CC4B7
0000002A
0046DA00
0044F451
0000001A
005EF003
000000AA
00202244
00270000
005E5C13
0058B200
00200034
00000000
005A5C00
005C5C00
00585C00
004E5C13
00205C00
0054DA00
00448700
000ACC57
00205A00
000ACC56
00202840
00250000
005E5C00
004D5C00
0045DA00
0044DA00
004C5C00
000CC580
0000003B
00200051
005EF003
000000AC
0044F400
0000001A
00202244
00000000
0003DCEE
000D10C0
00000031
0046DA00
0044F451
0000001A
005EF003
000000AB
00202244
00270000
005E5C13
0058B200
00200034
00000000
005A5C00
005C5C00
00585C00
004E5C13
00205C00
0054DA00
00448700
000ACC57
00000000
000ACC56
00202840
00000000
005E5C00
00200013
0054DA00
00000000
000ACC57
00000000
000ACC56
00448700
00202840
00000000
005E5C00
0045DA00
0044DA00
004C5C00
000CC580
0000000A
00200051
005EF003
000000AD
0044F400
0000001A
00202244
00000000
0003DCEE
000A7692
00000001
00200051
004CB103
0056F400
00000001
00200040
00000000
0021C400
000BF080
008635AE
006B5C00
000A76D2
00000001
00000000
000465A4
0075DA00
0065F400
000000B2
00000000
00000000
00000000
004CED00
004C5C00
006C7000
000003F7
004CF000
000000B7
00447000
00000054
0063F000
00000040
006CF000
00000046
0005F423
00FFFFFF
0005F424
00FFFFFF
000A1DEC
00860CFF
000213D4
000214D6
000A73E3
00000002
000A74E4
00000002
0073F400
00000006
0074F400
00000006
00209300
0020D400
00448713
0006C410
00000006
000213D4
0057F400
00000001
000C1E19
00204B10
004E9900
0006C610
00000006
000214D6
0057F400
00000001
000C1E1B
00204C10
00000000
00448700
005F9900
00200048
0020000D
000AF0A2
00860CFF
006C9A00
0005F424
00FFFFFF
00000000
00000000
000463A4
000204FE
00014285
000AF0AA
00860CC1
00014185
000AF0AA
00860CE3
000AF080
00860CFF
0044F400
000000D0
0007910E
00200040
00000000
00219300
0073F400
00000015
00000000
00000000
004CE400
00076B84
0073F400
00000021
0044F400
00001000
0056F400
00000100
000B1D71
00020040
00000000
00076B8E
0073F400
00000028
0044F400
00FFFFBB
00000000
00076B84
0073F400
0000002A
00071113
00076B84
000AF080
00860CFF
0044F400
00000095
0007910E
00200040
00000000
00219300
0073F400
00000011
00000000
00000000
004CE400
00076B84
0073F400
00000017
0044F400
00001000
0056F400
00000100
000B1D71
00020040
00000000
00076B8E
0073F400
0000001F
0044F400
00FFFFBB
00071113
00076B84
000BF080
008612BB
0020000B
0005A403
000A7036
0000004C
000BF080
008612CB
0020000B
0005A403
000A7035
0000004C
000BF080
008612F8
0056A000
00014085
0005A494
000A702F
0000004B
00200013
000CA397
00000005
0054F400
00000020
00050C03
0054F400
0000001F
0050F400
00000045
000BF080
0086399D
00014085
0005240A
00200013
0054F400
00000021
0050F400
00000045
000BF080
0086399D
00014085
0005A404
000A702F
0000004C
00050C58
00525F00
00505F00
00545F13
00445F00
00455F00
00465F00
00635F00
00055F23
00475F00
0044A000
0045F000
000000D0
002000A0
00200022
000C1D30
00000000
00014184
000C1EC2
00061790
00000007
00014085
000444BF
0000021A
00000000
000C1EC2
00000000
0056F400
00000018
00200044
00000000
0021C400
000BF080
00863673
00631F00
0047FF00
0005FF23
0063FF00
0046FF00
0045FF00
0044FF00
0054FF00
0050FF00
0052FF00
000BF080
008612BB
0020000B
0005A403
000A702E
0000004C
000BF080
008612CB
0020000B
0005A403
000A702D
0000004C
000BF080
008613DE
00568700
004C9900
00200040
00014085
000D104A
00000436
000A7034
0000004B
000C9DCC
0000021E
005E9C00
004C9A32
0073F440
00000002
0005F423
00FFFFFF
00219300
00000000
00000000
00000000
00204300
004CC300
005E9C00
00014285
000D1047
00000003
00204B00
0009E3C4
004C1500
006B9A00
00000000
00000000
00000000
00205B13
005CDB00
000C1ED8
00000000
0007250C
006B1300
006BF000
0000004D
00240000
004C7013
0000004E
00208C00
00014180
000213D4
004C7000
0000004C
004C2400
004C2500
005EAE00
00014184
00000000
00218500
000C1E8C
00000000
00218400
005EAC00
00014184
000C1E98
00200042
00000000
005C7000
0000004F
00020B9C
00014180
00000000
005C7000
00000050
005C7000
0000004A
00218400
002000A0
00000000
00210E00
00200023
000140C4
00000001
00200036
00000000
005E7000
00000051
005EAC00
00014180
00000000
005E2B00
00200013
00000000
005A2700
005C2700
00582900
0008F0ED
0000004F
0008F0F1
00000050
0008F0F0
00000051
0044F400
009D06C0
004C2600
0008F0F3
00000050
0008F0F2
00000051
0008F4AA
00FFFFCD
0008F4A6
00FFFFCD
005EF000
0000004F
000140C6
00000FFF
00000000
00563000
000ABF2E
000ABF0F
000ABF30
000ABF11
000C9DC7
00000004
000ABE00
000ABE21
005E9F00
006BF003
00000058
0005F423
00FFFFFF
000D104A
00000004
000213D4
00440800
006B9E00
0005F423
00FFFFFF
00000000
00000000
00000000
000213F4
00059063
00209300
007B9900
004C0F00
004C2A00
00000000
00000000
00204300
00630400
00209300
00240000
0006E310
00000002
00445B00
00445B00
0063F000
000000F0
000A814D
00000000
00000000
005EE300
0063F000
000000DF
000140C6
0000000F
000140C5
00000001
000AF0A2
00860E1D
005EE300
000140C6
000000FF
000140C5
0000002A
000AF0AA
00860E18
000140C5
0000004A
000AF0A2
00860E1D
005EF000
00000048
000A814C
0004CC78
000A816D
00200013
0000000A
00000000
005A1600
005C1700
00581800
00448400
004C7000
00000059
000B0460
000D1040
0000013F
006CF000
0000005A
0005F424
00FFFFFF
006BF000
00000052
000463A4
00000000
000204F4
004C5B00
00205B00
006CDB00
00000000
00000000
00000000
005EE400
004EF000
00000087
0074F400
00000003
004EF055
00000088
000AF0AA
00860E66
004EF055
0000008A
000AF0AA
00860E66
0074F400
00000004
004EF055
00000089
000AF0AA
00860E66
004EF055
0000008B
000AF0AA
00860E66
004EF055
0000008C
000AF0AA
00860E66
004EF055
0000008D
000AF0AA
00860E66
0074F400
00000005
004EF055
0000008E
000AF0AA
00860E66
004EF055
0000008F
000AF0AA
00860E66
00200055
000AF0AA
00860E66
000AF080
00860E6C
00204C00
005EE400
000140C0
00000001
00000000
005E6400
005EDB00
000140C4
00000001
000AF0AA
00860EAB
0006CC10
00000039
006CDB00
00000000
00000000
00000000
005EE400
004EF000
00000087
0074F400
00000003
004EF055
00000088
000AF0AA
00860EA5
004EF055
0000008A
000AF0AA
00860EA5
0074F400
00000004
004EF055
00000089
000AF0AA
00860EA5
004EF055
0000008B
000AF0AA
00860EA5
004EF055
0000008C
000AF0AA
00860EA5
004EF055
0000008D
000AF0AA
00860EA5
0074F400
00000005
004EF055
0000008E
000AF0AA
00860EA5
004EF055
0000008F
000AF0AA
00860EA5
00200055
000AF0AA
00860EA5
000AF080
00860EAB
00204C00
005EE400
000140C0
00000001
00000000
005E6400
006CDB00
00000000
00000000
00000000
005EE400
004EF000
00000087
0074F400
00000003
004EF055
00000088
000AF0AA
00860EDD
004EF055
0000008A
000AF0AA
00860EDD
0074F400
00000004
004EF055
00000089
000AF0AA
00860EDD
004EF055
0000008B
000AF0AA
00860EDD
004EF055
0000008C
000AF0AA
00860EDD
004EF055
0000008D
000AF0AA
00860EDD
0074F400
00000005
004EF055
0000008E
000AF0AA
00860EDD
004EF055
0000008F
000AF0AA
00860EDD
00200055
000AF0AA
00860EDD
000AF080
00860EE3
00204C00
005EE400
000140C0
00000001
00000000
005E6400
005EDB00
000140C4
00000001
000AF0AA
00860F22
0006CC10
00000039
006CDB00
00000000
00000000
00000000
005EE400
004EF000
00000087
0074F400
00000003
004EF055
00000088
000AF0AA
00860F1C
004EF055
0000008A
000AF0AA
00860F1C
0074F400
00000004
004EF055
00000089
000AF0AA
00860F1C
004EF055
0000008B
000AF0AA
00860F1C
004EF055
0000008C
000AF0AA
00860F1C
004EF055
0000008D
000AF0AA
00860F1C
0074F400
00000005
004EF055
0000008E
000AF0AA
00860F1C
004EF055
0000008F
000AF0AA
00860F1C
00200055
000AF0AA
00860F1C
000AF080
00860F22
00204C00
005EE400
000140C0
00000001
00000000
005E6400
00205B00
00205B00
00205B00
00205B00
006CDB00
00000000
00000000
00000000
00020C96
004E5B00
00020494
004C5B00
000204D4
004C5B00
0004C6A4
00209400
00240000
0006E420
00445C00
00445C00
006CF000
00000052
00000000
00000000
00000000
000A64C1
00860F3E
000A6377
00205B00
00205B00
00205B00
00205B00
00205B00
006CDB00
00000000
00000000
00000000
00020C96
004E5B00
00020495
004D5B00
000204D4
004C5B00
00020CD4
004C5B00
0004C6A4
0020B400
00240000
0006E420
00445C00
00445C00
006CF000
0000004D
004CA300
004C5B00
00000000
000204D4
004C5B00
0056F400
00000014
0045F400
0000000C
00200064
00000000
005C5B00
0044F400
00000000
004C5B00
004E8400
000CC697
00000011
006BF000
0000005A
00000000
00000000
00000000
000203B6
004E0500
0020D300
004E8600
0004C6A3
00260000
0006E320
00465B00
00465B00
004E8400
000CC691
00000003
004E8400
000CC690
00000003
004E8400
000CC68F
00000003
004E8400
000CC695
00000003
004E8400
000CC687
00000003
004E8400
000CC689
00000002
000D10C0
00000106
006BF000
0000004D
00260000
004E7013
0000004E
0020CC00
00014180
000213D6
004E7000
0000004C
004E2400
004E2500
005EAE00
00014184
00000000
00218700
000C1E8C
00000000
00218600
005EAC00
00014184
000C1E98
00200052
00000000
005C7000
0000004F
00020B9C
00014180
00000000
005C7000
00000050
005C7000
0000004A
00218600
002000B0
00000000
00210E00
00200023
000140C4
00000001
00200036
00000000
005E7000
00000051
005EAC00
00014180
00000000
005E2B00
00200013
00000000
005A2700
005C2700
00582900
0008F0ED
0000004F
0008F0F1
00000050
0008F0F0
00000051
0046F400
009D06C0
004E2600
0008F0F3
00000050
0008F0F2
00000051
0008F4AA
00FFFFCD
0008F4A6
00FFFFCD
005EF000
0000004F
000140C6
00000FFF
00000000
00563000
000ABF2E
000ABF0F
000ABF30
000ABF11
000C9DC7
00000004
000ABE00
000ABE21
006B9E00
0005F423
00FFFFFF
00000000
00000000
00000000
000213F6
00059063
0020D300
007B9900
004E0F00
004E2A00
00000000
00000000
00204300
00630400
0020D300
00260000
0006E310
00000002
00465B00
00465B00
0005F423
00FFFFFF
006B9A00
00000000
00000000
00000000
004EDB00
004FDB00
006B95B0
00200022
00000000
0004C879
0006FFA0
00000000
0007A3F8
004FE300
0006FFA0
00000000
0007B4BD
00000000
0006FFA0
00000000
0007B4BC
00000000
0006FFA0
00000000
0054F400
00000000
00000000
00547000
00000052
00000000
00094E00
000140C6
000000FF
00000000
000140C5
0000004A
000D1042
0000002C
00200013
005EE300
000140C5
00000001
000D104A
0000002E
00205B00
00475F00
00535F00
00515F00
00555F1B
00094F00
000C1C91
00000000
0047F400
00000002
000140CD
00001121
000D1049
00000008
0047F400
00000001
000C9DD1
00000004
0047F400
00000002
00635F00
00000000
00200074
0006C720
00205B00
0006CE20
00079BFB
0063FF00
0006C720
00079BFB
0055FF00
0051FF00
0053FF00
0047FF00
000D10C0
00000011
000C9DF1
00000008
00000000
00065B60
00079BFB
00270000
000AF080
00861056
00000000
005EDB00
00014184
004EDB00
0006CE20
00079BFB
0004C67B
0007B4BC
00000000
0007B496
00000000
0006FFA0
00000000
0007B4BD
00000000
0006FFA0
00000000
000A816E
006B9500
0005F423
00FFFFFF
00000000
00000000
00000000
004EE300
004E1C00
0063F000
000000F0
000A814D
00000000
00000000
005EE300
0063F000
000000DF
000140C6
0000000F
000140C5
00000001
000AF0A2
00861087
005EE300
000140C6
000000FF
000140C5
0000002A
000AF0AA
00861082
000140C5
0000004A
000AF0A2
00861087
005EF000
00000048
000A814C
0004CC78
000A816D
005A9600
005C9700
00589800
0000000A
00000000
005A1600
005C1700
00581800
000ABF32
000ABF13
0005F421
00FFFFFF
006BBA00
000463A1
0005A361
005EF000
000000A8
00205B00
0073F400
00000006
0006CE10
0000000C
00205B00
00205B00
00205B00
00205B00
0079DB00
0069A400
00205B00
00000000
00000000
00204900
00694B00
000A1DEC
0086119F
0064F000
00000040
0005F424
00FFFFFF
00000000
00000000
00000000
000214D4
000A74E4
00000002
0074F400
00000006
0020941B
00060700
008610BD
000214D4
0056F400
00000001
000C1E48
00204C18
00000000
0021E600
006CF000
00000046
0005F424
00FFFFFF
00000000
00000000
00000000
000214D4
000A74E4
00000002
0074F400
00000006
0020941B
00061940
008610D3
000214D4
0056F400
00000001
000C1E48
00204C18
0007F08E
00D0FFFF
0007F085
00D0FFFE
000C1960
00008020
0007F085
00D0FFFD
000C1960
00008028
000140C0
00000155
0005F424
00FFFFFF
00219400
00000000
00000000
00000000
0007E485
000AC500
008610ED
0020005D
00029058
000AF080
008610EE
00200058
00000000
0021A513
0054F000
00FFFF8D
0064F000
000000E1
00200026
00000000
0021C800
002C0000
00200032
000618A0
00018060
00000000
00210E00
00000000
00218400
00000000
0020001B
0055F000
0000006C
00200013
00208C00
0046F000
00000070
00000000
000CA470
0000005E
000140CD
00021101
000D1041
0000002E
0044F400
00000048
000140C5
00000190
000D1041
00000084
0044F400
00000038
000140C5
000000C8
000D1041
0000007E
0044F400
0000001E
000140C5
00000085
000D1041
00000078
0044F400
00000006
000140C5
00000064
000D1041
00000072
0044F400
00000004
000140C5
00000058
000D1041
0000006C
0044F400
00000002
000140C5
00000053
000D1041
00000066
0044F400
00000000
000140C5
00000050
000D1041
00000060
000D10C0
0000005E
0044F400
0000007E
000140C5
00000190
000D1041
00000058
0044F400
00000039
000140C5
000000C8
000D1041
00000052
0044F400
0000001C
000140C5
00000085
000D1041
0000004C
0044F400
00000006
000140C5
00000064
000D1041
00000046
0044F400
00000003
000140C5
00000058
000D1041
00000040
0044F400
00000002
000140C5
00000053
000D1041
0000003A
0044F400
00000002
000140C5
00000050
000D1041
00000034
000D10C0
00000032
000140CD
00021101
000D1041
00000006
00240000
00000000
000D10C0
0000002A
0044F400
0000007F
000140C5
00000190
000D1041
00000024
0044F400
00000028
000140C5
000000C8
000D1041
0000001E
0044F400
00000007
000140C5
00000085
000D1041
00000018
0044F400
00000007
000140C5
00000064
000D1041
00000012
0044F400
00000004
000140C5
00000058
000D1041
0000000C
0044F400
00000003
000140C5
00000053
000D1041
00000006
0044F400
00000002
000140C5
00000050
0056F400
000000F2
000BF080
00863754
00219400
00000000
00000000
00000000
004C6400
000BF080
008614EC
0056A000
00014085
0005A49B
000A702C
0000004B
00525F00
00505F00
00545F13
00445F00
00455F00
00625F00
00055F22
0062F000
000000CF
0005F422
00FFFFFF
00645F00
00055F24
00635F00
00055F23
000464A2
000463A2
00639F00
000A72D2
00000005
00465F00
00475F00
006CE300
0045A000
0047A700
0046F000
000000DB
0006C510
00000022
00200013
00000000
0056DA00
0044F000
00000058
00200045
0044F400
00000000
000D1049
00000003
000AC462
0045F000
00000070
00000000
000CC581
00000003
000AC461
00000000
00445F00
0044DA00
00200033
000140C0
00000050
00200070
00465C00
00445C00
00219300
0044FF00
00445C00
004DE300
00000000
00455C00
00000000
0046F000
000000DC
00000000
0003F486
00639F00
0047FF00
0046FF00
00646300
0005FF23
0063FF00
0005FF24
0064FF00
0005FF22
0062FF00
0045FF00
0044FF00
0054FF00
0050FF00
0052FF00
0044F000
000000D7
000CA397
00000004
00072D04
00050C02
00071504
000A8981
008611FE
0008F08D
0000004B
00000000
00000000
000A8981
00861204
0008F08D
0000004C
000C9DCC
00000006
000A7022
00000042
0009F085
00000042
0044FF00
00447000
0000004C
0044FF00
00447000
0000004B
0047FF00
0046FF00
0045FF00
0044FF00
0055FF00
0051FF00
0053FF00
0005FF26
0076FF00
0066FF00
0005FF25
0075FF00
0065FF00
0005FF24
0074FF00
0064FF00
0005FF22
0072FF00
0062FF00
0005FF21
0071FF00
0061FF00
0005FF20
0070FF00
0060FF00
000AF080
00860117
004C8400
000CC4A0
00000010
0054F400
00000006
0050F400
00000045
000BF080
0086399D
00200003
00052491
000BF080
0086129F
00200003
0005248D
000D10C0
00000037
0054F400
00000040
0050F400
00000045
000BF080
0086399D
00200003
00052483
000ABF2C
006BF000
00000054
0005F423
00FFFFFF
00000000
00000000
00000000
00021BF4
000CC4B7
00000014
0054F400
00000044
0050F400
00000045
000BF080
0086399D
00200003
00052450
0054F400
00000048
0050F400
00000045
000BF080
0086399D
00200003
00052448
000D10C0
00000012
0054F400
00000042
0050F400
00000045
000BF080
0086399D
00200003
0005241E
0054F400
00000046
0050F400
00000045
000BF080
0086399D
00200003
00052416
00200013
0054F400
00000000
0050F400
00000045
000BF080
0086399D
00200003
0005240D
005E8400
00200003
0005A40A
00200013
0054F400
00000001
0050F400
00000045
000BF080
0086399D
00200003
00052401
0000000C
0054F400
00000006
0050F400
00000045
000BF080
0086399D
00200003
0005240C
000BF080
0086129F
00200003
00052408
00200013
0054F400
00000004
0050F400
00000045
000BF080
0086399D
0000000C
005E9F00
00200003
000D1042
00000012
000C9DE7
00000006
0054F400
0000000B
000D10C0
0000000E
0054F400
0000000F
0050F400
00000045
000BF080
0086399D
0054F400
0000000D
000D10C0
00000004
0054F400
00000009
0050F400
00000045
000BF080
0086399D
00000000
0000000C
0020001B
00261000
004CF013
00000305
005CF000
00000303
00200045
0020295A
00262000
004CF013
00000306
005CF000
00000304
00200045
0020295A
0000000C
0020001B
00261000
0044F013
00000405
0054F000
00000403
00200045
0020295A
00262000
0044F013
00000406
0054F000
00000404
00200045
0020295A
0000000C
00455F00
000A8982
008612DC
00084E0B
00000000
00000000
000A8982
008612E1
0008450B
0006CC10
0000000B
0006C510
00000007
000A8982
008612E8
0008440B
00000000
00000000
00000000
00000000
00000000
0045FF00
000A8981
008612F1
0008F48D
00000000
000AF080
00860117
0000000C
0005F422
00FFFFFF
000464A2
000463A2
000466A2
0056F000
00000077
00200003
0005A51F
0056F000
00000056
00200003
0005A51B
000C1EC4
00000000
00218400
000141C0
00000008
00200022
00000000
00210E00
00000000
00547000
00000087
000BF080
008615D6
00200003
00052404
000A7032
0000004C
00050D09
00547000
00000086
0044F000
00000087
00200040
00000000
005C7000
000003F7
0056F000
00000056
000C1EC4
00000000
00218413
000141C0
00000004
00000000
00210E00
000C1EC2
00061790
00000007
00014085
000444BF
0000021A
00000000
000C1EC2
00000000
0056F400
00000018
00200044
00445F00
00635F00
00735F00
00055F23
00218400
000BF080
00863673
00226E00
00200003
0005FF23
0073FF00
0063FF00
0044FF00
00052404
000A7032
0000004C
00050C9B
00547000
00000088
0056F000
00000056
00200003
0005A419
000C1EC4
00000000
00218400
000141C0
00000005
00200022
00000000
00507000
00000085
00210E00
000BF080
008615D6
00200003
00052404
000A7030
0000004C
00050C84
00541600
0044F000
00000085
00200040
00000000
005C7000
000003F7
0056F000
00000077
00200003
0005A455
000A7032
0000004B
0044F013
00000079
000141C0
0000000E
00200022
0046F000
0000007F
00210400
00447000
0000007E
000141D0
0000000E
00200022
00000000
00507000
00000084
00210E00
00200040
00000000
00547000
00000078
000BF080
008615D6
00200003
00052404
000A7032
0000004C
00050C1B
00540B00
00540C00
0044F000
00000078
00200040
00000000
005C7000
000003F7
0056F000
00000079
0066F403
00000079
0005A403
000BF080
008613A0
0056F000
0000007F
0066F403
0000007F
0005A403
000BF080
008613A0
0056F000
0000008B
00200003
0005A401
0000000C
003C0600
0002069E
000A76D2
00000001
000A7031
0000004B
000A72D4
00000001
000BF080
008613AF
00440D0B
0005A403
000A7031
0000004C
0000000C
00040424
0006CC10
0000002B
0056E400
00014184
000C1EC2
00061790
00000007
00014085
000444BF
0000021A
00000000
000C1EC2
00000000
0056F400
00000018
00200044
000A7294
00000001
0021C400
000BF080
00863604
0020000B
00052410
000BF080
008635AE
00226E00
000A72D4
00000001
00200003
0005A409
0056E41B
00020BD4
00020BCC
00014184
00634C00
00020B8C
00200013
00050C05
00240000
0057F400
00000001
0000008C
00000000
00000000
0000000C
0000000C
0005F425
00FFFFFF
000466A5
000464A5
0056F000
00000077
00200003
000D104A
00000106
0056F000
00000086
00219503
000D104A
00000101
0056F000
00000088
00219203
000D104A
000000FC
000B72D6
00000001
000B72E6
00000002
00020AF4
0006C410
00000005
00240000
00445E00
00000000
00000000
000466A5
00040747
0056F000
00000056
000C1EC4
00014184
003D0800
0003FF8C
00240000
0003FFC4
0003F7C4
0056F400
00000059
0050F400
00000045
000BF080
0086399D
000C84CD
0000000F
0066F400
00867811
00000000
00000000
00000000
000B76D6
00000004
0056F400
000C0000
00079304
00200042
00000000
0007668C
0056F400
00000058
0050F400
00000045
000BF080
0086399D
0056F400
0000005A
0050F400
00000045
000BF080
0086399D
0066F400
0086780B
0076F400
00000003
00200003
0005255C
006CEE00
000202F4
000BF080
008614C8
004C5D00
000202B4
004C5D00
0044F400
00000007
000BF080
008614DB
004C5D00
000212F4
004C5D00
0003FFDE
000C1E84
000BF080
00862A95
00585D00
000BF080
008614BA
005C5D00
000BF080
008614C1
0003FFDE
000BF080
008628E5
00218E00
000BF080
00863754
005C5D00
000BF080
008614E2
006C5D00
00228E00
00649600
0044F000
00000089
000140C0
0000000E
00000000
005C5C00
004C5C00
000140C0
00000008
004C5C00
005C5C00
004C5C00
000A7794
00FFFFFC
0003FF94
0006C410
00000055
0056F400
0000005A
0050F400
00000045
000BF080
0086399D
00547000
0000008A
00200003
0005A403
0000008C
00050CDB
006CEE00
0003E5BE
000BF080
008614C8
00014880
00000000
005C5D00
0003E5BF
00014888
00000000
005D5D00
0044F400
00000007
000BF080
008614DB
004C5D00
0003E5B4
004C5D00
0003FFDE
00014180
00000000
0003FFCC
000C1E84
000BF080
00862A95
00585D00
000BF080
008614BA
005C5D00
000BF080
008614C1
0003FFDE
000C1E84
000BF080
008628E5
00218E00
000BF080
00863754
005C5D00
000BF080
008614E2
006C5D00
00228600
000A77D4
00FFFFFC
0044F051
00000089
000140C0
0000000E
00000000
005C5C00
004C5C00
000140C0
00000008
004C5C00
005C5C00
004C5C00
00200051
0003DCE6
000140C0
00000001
00000000
0003E4AC
000140C0
00000001
00000000
0003ECAC
000A7794
00FFFFFC
00000000
00000000
00000000
00000000
00043FC7
00050C52
0074F400
00000005
00445F00
0003FDF4
00076C84
0044FF00
0000000C
0074F400
00000010
00445F00
0003FDF4
00076C84
0044FF00
0000000C
0074F400
00000003
00000000
00000000
00000000
00076C95
0074F400
00000013
00000000
00000000
00000000
00076C95
0074F400
0000001C
00000000
00000000
00000000
00076C95
0000000C
0074F400
0000000C
00000000
00000000
00000000
00076C95
0000000C
0074F400
0000001A
00000000
00000000
00000000
00076C8C
0000000C
000A7030
0000004C
0000000C
0005F423
00FFFFFF
000462A3
000464A3
000465A3
000466A3
00040737
0056F000
00000077
00200003
000D104A
000000BA
0056F000
0000007A
00000000
00219203
000D104A
00000064
00568B00
00000000
00219503
000D104A
000000AF
000A1B31
000A7030
0000004B
000A7033
0000004B
0056F400
00000068
0050F400
00000045
000BF080
0086399D
00200003
000D1042
000000A2
0056F400
00000008
000BF080
008615D6
00200003
000D104A
0000009E
00219600
0056F000
00000056
000C1EC4
00000000
00020EEC
00021EAC
00240000
00020EA4
000A1B13
000A1B12
0044F000
00000079
000216E4
000BF080
008615E9
000216BE
00200003
0005A44B
000A1B33
00050403
000BF080
00861695
0056F400
00000069
0050F400
00000045
000BF080
0086399D
00200003
000D1042
0000007E
000BF080
008616BF
000A1B32
000BF080
00861603
00200003
000D1042
00000076
000BF080
00861666
000BF080
008615E9
000216BE
00200003
0005A40F
000A1B12
00050403
000BF080
00861691
000A1B32
000BF080
00861603
00200003
000D1042
00000065
000BF080
00861666
000AF080
00861542
00021EBE
00014184
00000000
00021EAC
0005A407
00020EBF
00014188
00000000
00020EAD
000AF080
00861523
0056F000
00000080
00000000
00219203
000D104A
0000004C
00568B00
000C9BB1
0000001B
00219503
000D104A
00000046
000A7030
0000004B
000A7033
0000004B
0056F400
00000068
0050F400
00000045
000BF080
0086399D
00200003
000D1042
0000003A
0056F400
00000008
000BF080
008615D6
00200003
000D104A
00000036
00219600
00050C03
000BF080
00861691
0056F400
0000006A
0050F400
00000045
000BF080
0086399D
00200003
000D1042
00000026
0044F000
0000007F
000216E4
000BF080
00861779
000216BE
00200003
0005A41C
000BF080
008616FE
00200003
000D1042
0000001C
000BF080
00861757
000216FE
00014184
00000000
0006CC10
00000010
000BF080
0086178B
000BF080
00861779
000216BE
00200003
00052402
0000008C
000BF080
008616FE
00200003
000D1042
00000008
000BF080
00861757
00050C07
000A7033
0000004C
00050C04
000A7030
0000004C
00050C01
00043FD7
00000000
00000000
00000000
0000000C
0044F000
00000094
0046F041
00000767
00200050
000140C5
00000700
00051409
00547013
00000767
0020D600
00461300
0006C410
00000002
00545E00
00050C0A
0046F041
000000F2
0044F050
000000F4
00200045
000517DB
00547013
000000F2
00050FD2
0000000C
004CF000
000003F7
00218640
000140C5
00000800
00200041
00051402
0000000C
004CF051
000000B9
004EF040
000000BB
00200055
00200041
00051402
0000000C
00200013
0000000C
0000000C
000A72D4
00000005
003C0600
000A7294
00000001
000216FF
00240000
000216A4
00020EB4
000B6434
0005840C
0056E400
00015F86
000C1EC4
00000000
00218E00
00200045
00052405
000A6434
000B7694
00000004
00050C04
0001418C
00204C0B
000527D1
0000000C
000BF080
00861699
000B76D4
00000004
00000000
00000000
00000000
000A7495
00000005
0002049E
00015F86
000C1EC8
00000000
005C7000
0086737D
000204DE
000BF080
008616A8
00200003
0005A48C
005C7000
0086737E
00020C94
004C7000
0086737F
0002049F
00014F8E
0056F400
00000001
000C1E16
00000000
005C7000
00867380
004CF000
008673A0
004C7000
00867381
004CF000
008673A6
004C7000
00867382
004CF000
008673A3
004C7000
00867385
004CF000
008673A4
004C7000
00867387
004CF000
008673A5
004C7000
00867388
004CF000
008673A8
004C7000
00867389
004CF000
008673AA
004C7000
0086738A
0002049E
00015F86
00000000
00218E00
000BF080
008628E5
00214F00
00587000
00867386
00218E00
000BF080
00863754
005C7000
0086738B
0001508D
0044F400
00000004
0057F400
00000008
00202A49
00020494
00445F00
000BF080
00862948
0056FF00
0044F403
00000001
00202A4C
005C7000
00867383
005D7000
00867384
00200013
0000000C
0056F400
0000000D
0000000C
0000000C
004CF000
0086737D
004C5D00
004CF000
0086737E
004C5D00
004CF000
0086737F
004C5D00
004CF000
00867380
004C5D00
004CF000
00867381
004C5D00
004CF000
00867382
004C5D00
004CF000
00867383
004C5D00
004CF000
00867384
004C5D00
004CF000
00867385
004C5D00
004CF000
00867386
004C5D00
004CF000
00867387
004C5D00
004CF000
00867388
004C5D00
004CF000
00867389
004C5D00
004CF000
0086738A
004C5D00
0000000C
004CF000
0086739C
0003FDA4
0000000C
004CF000
0086739C
0003FDA4
0000000C
00635F00
00735F00
00055F23
0063F400
0086737D
00240000
00060F90
00000004
004C5B00
00000000
00000000
0005FF23
0073FF00
0063FF00
0000000C
000140C6
00C00000
000C1EE8
00000000
00218E00
00014085
00052404
005EF000
0086739D
0000000C
00014885
00052404
005EF000
0086739E
0000000C
00014C85
00052404
005EF000
0086739F
0000000C
00200013
0000000C
0000000C
00625F00
00725F00
00055F22
0005F422
00FFFFFF
0062F400
00867846
00020EBE
000C1E84
000B72D2
00000003
00218400
0072F400
00000003
000BF080
00862A95
00076A88
0072F400
00000005
00000000
00000000
00000000
00076A8C
00200041
000BF080
008628E5
00218E00
0072F400
00000019
000BF080
00863754
00076A8C
0020001B
00020EB6
000141D8
00000008
0020002A
0072F400
00000009
00212F00
0046F000
00000086
00200058
00000000
0021A600
00014188
00000000
00076A8D
0072F400
00000015
00000000
00000000
00000000
00076A8D
0072F459
0000000B
00014288
00000000
00076A8D
0005FF22
0072FF00
0062FF00
0000000C
000BF080
00861699
000B76D4
00000004
00000000
00000000
00000000
000A7495
00000005
0002049E
00015F86
000C1EC8
00000000
000ACC6B
00000000
005C7000
0086737D
000204DE
000BF080
008616A8
00200003
0005A480
005C7000
0086737E
00020C94
004C7000
0086737F
0002049F
00014F8E
0056F400
00000001
000C1E16
00000000
005C7000
00867380
004CF000
008673A1
004C7000
00867381
004CF000
008673A7
004C7000
00867382
004CF000
008673A2
004C7000
00867385
004CF000
008673A8
004C7000
00867389
0002049E
00015F86
00000000
00218E00
000BF080
008628E5
00214F00
00587000
00867386
00218E00
000BF080
00863754
005C7000
0086738B
0001508D
0044F400
00000004
0057F400
00000008
00202A49
00020494
00445F00
000BF080
00862948
0056FF00
0044F403
00000001
00202A4C
005C7000
00867383
005D7000
00867384
00200013
0000000C
0056F400
0000000D
0000000C
0000000C
004CF000
0086737D
004C5D00
004CF000
0086737E
004C5D00
004CF000
0086737F
004C5D00
004CF000
00867380
004C5D00
004CF000
00867381
004C5D00
004CF000
00867382
004C5D00
004CF000
00867383
004C5D00
004CF000
00867384
004C5D00
004CF000
00867385
004C5D00
004CF000
0086738B
004C5D00
004CF000
00867389
004C5D00
0000000C
000A72D4
00000005
003C0600
000A7294
00000001
000216FF
00240000
000216A4
000B6434
00058405
000A6434
000B7694
00000004
00050C04
0001418C
00204C0B
000527D8
0000000C
004CF000
0086739C
0003FDE4
0000000C
000A8982
0086178F
00085F8B
000A8982
00861792
00085F8B
000BF080
00863BAF
000CC901
00000000
0008FF8D
000AF080
00860117
00040717
000BF080
00863BF1
000CC901
00000000
0008FF8D
000AF080
00860117
000A8982
008617A4
00085F8B
000A8982
008617A7
00085F8B
000A8982
008617AA
00085F8B
000BF080
00863C9C
000CC901
00000000
0008FF8D
000AF080
00860117
000A8981
008617B4
00077007
00FFFFCD
000A8981
008617B8
0007700B
00FFFFCD
000A8981
008617BC
0007700F
00FFFFCD
000A8981
008617C0
0008F0CD
0000001D
000A8981
008617C4
0008F08D
0000001B
000AF080
00860117
     F11
P 8617CA
00525F00
00505F00
00545F00
00535F00
00515F00
00555F00
00635F00
00735F00
00055F23
00655F00
00755F00
00055F25
00475F00
00465F00
00445F00
0005F423
00FFFFFF
000465A3
000A8982
008617DC
00085B0B
00094401
00447000
00000071
00236E00
0046F000
00000055
00218F55
000AF080
008617F8
00051415
00050C0F
0005940E
0046F000
00000073
00200058
00200005
0005140E
0063F400
00868485
0065F400
00868485
0009F48F
00000003
000A8174
00050C15
0063F400
008683E3
0065F400
00868443
00059410
000A8982
008617FD
0008440B
00000000
00000000
000A8982
00861802
0008440B
00000000
00000000
000A8981
00861807
0008F48D
00000000
00050CDE
000B8362
00028D03
000A8240
00000000
004EEB00
000B7030
00000071
0005040A
0047F000
00000075
0063F400
00FFFFCB
0065F400
00FFFFCC
0044F400
00000008
00050C09
0047F000
00000076
0063F400
00FFFFC8
0065F400
00FFFFC8
0044F400
00000000
00200051
000140C6
000000FF
0057F400
00000005
00218E00
000CC174
00000006
00200003
0002AD03
00202A48
00050C03
00200003
00202A48
00000000
000BF080
00863951
000140C5
00021215
000D1049
00000014
0055F400
0000000C
00236C00
0044F400
00000003
000A81CF
00861843
00014F85
00202748
00000000
000A8982
00861844
00084E0B
0021A400
000C1E18
00200052
000D10C0
00000008
000A8982
0086184C
00084E0B
0021A400
000C1E18
00200052
000A8982
00861852
0008440B
0009CC04
000B8362
00058404
000610A2
00000000
00050C03
000668A2
00000000
000B7030
00000071
00050405
0009F48A
00000000
0006C720
00000000
0056F400
00000001
000C1E18
00000000
00218613
0006C610
00000007
0009F48A
00000000
0006C720
00000000
004EE300
00200050
00000000
00218600
0056F400
00000800
000B7030
00000071
00050402
000C1C08
000C1E68
00000000
00218400
0056F400
00FFFFFF
00200022
002000D2
000C1C08
000A8981
00861881
0008C80D
000AF080
00861889
00050C03
000A8154
00050C01
0044F000
00000071
00000000
0009C401
0044FF00
0046FF00
0047FF00
0005FF25
0075FF00
0065FF00
0005FF23
0073FF00
0063FF00
0055FF00
0051FF00
0053FF00
0054FF00
0050FF00
0052FF00
00000004
000AF080
00860117
00625F00
00055F22
00725F00
00645F00
00055F24
00745F00
00465F00
00455F00
00475F00
00568700
00200003
000D1042
00000008
0044F400
0000000A
000BF080
008635AE
00637000
00000040
00568700
0044F000
00000055
00200045
000140C0
00000001
0005F422
00FFFFFF
00540700
0062F000
00000040
000463A2
0064F000
000000E1
000A72D3
00000000
00200013
00000000
000A8982
008618C4
00084C0B
000C1D18
00000000
00219A00
000A8982
008618CA
0008440B
00200041
000140C6
00700000
00200041
000AF0A2
00861922
000CA460
00000032
0056F000
00000072
000140C0
00000155
0005F424
00FFFFFF
00219400
00000000
00000000
00000000
0007E486
00209C13
000CC6A0
00000013
0056F400
00000009
000D016D
000140C6
0000003F
000140C5
00000008
000D104A
00000006
0064F400
008683E3
000D10C0
00000013
0064F400
00868485
000D10C0
0000000F
0056F400
00000009
000D016D
000140C6
0000003F
000140C5
00000008
0005A7D5
0064F400
00868423
00000000
00000000
00000000
005CEC00
00000000
000D10C0
0000001C
0056F000
00000072
00000000
000140C0
00000155
0005F424
00FFFFFF
00219400
00000000
00000000
00000000
0007E486
00209C13
000CC6A0
00000006
0064F400
00868443
000D10C0
00000007
0064F400
00868463
00000000
00000000
00000000
005CEC00
00000000
00234600
00200052
00000000
00545B00
000A8982
00861923
00085B8B
000A8982
00861926
0008440B
00445B00
004C7000
000000B8
000A8982
0086192C
0008440B
00445B00
004C7000
00000049
000A8982
00861932
00085B8B
000A8982
00861935
00085B8B
000A7293
00000000
0044F400
00000000
000A8981
0086193C
0008C40D
0047FF00
0045FF00
0046FF00
0074FF00
0005FF24
0064FF00
0072FF00
0005FF22
0062FF00
000AF080
00860117
00625F00
00055F22
00725F00
00645F00
00055F24
00745F00
00465F00
00455F00
00475F00
005E9900
00200003
000D1042
00000008
0044F400
0000000A
000BF080
008635AE
006B7000
00000046
005E9900
0044F000
00000055
00200045
000140C0
00000001
0005F422
00FFFFFF
005C1900
006AF000
00000046
000463A2
0064F000
000000E1
000A72D3
00000000
00200013
00000000
000A8982
0086196F
00084C0B
000C1D0E
00000000
00219A00
000A8982
00861975
0008440B
00200041
000140C6
00700000
00200041
000AF0A2
008619CD
000CA460
00000032
0056F000
00000072
000140C0
00000155
0005F424
00FFFFFF
00219400
00000000
00000000
00000000
0007E486
00209C13
000CC6A0
00000013
0056F400
00000009
000D016D
000140C6
0000003F
000140C5
00000008
000D104A
00000006
0064F400
008683E3
000D10C0
00000013
0064F400
00868485
000D10C0
0000000F
0056F400
00000009
000D016D
000140C6
0000003F
000140C5
00000008
0005A7D5
0064F400
00868423
00000000
00000000
00000000
005CEC00
00000000
000D10C0
0000001C
0056F000
00000072
00000000
000140C0
00000155
0005F424
00FFFFFF
00219400
00000000
00000000
00000000
0007E486
00209C13
000CC6A0
00000006
0064F400
00868443
000D10C0
00000007
0064F400
00868463
00000000
00000000
00000000
005CEC00
00000000
00234600
00200052
00000000
00545B00
000A8982
008619CE
00085B8B
000A8982
008619D1
0008440B
00445B00
004C7000
000000B8
000A8982
008619D7
0008440B
00445B00
004C7000
00000049
000A8982
008619DD
00085B8B
000A8982
008619E0
00085B8B
000A7293
00000000
0044F400
00000000
000A8981
008619E7
0008C40D
0047FF00
0045FF00
0046FF00
0074FF00
0005FF24
0064FF00
0072FF00
0005FF22
0062FF00
000AF080
00860117
00625F00
00055F22
00725F00
00645F00
00055F24
00745F00
00465F00
00455F00
00475F00
005E9F00
00200003
000D1042
00000008
0044F400
0000000A
000BF080
008635AE
006B7000
00000047
005E9F00
00241000
00200045
000140C0
00000001
0005F422
00FFFFFF
005C1F00
006AF000
00000047
000463A2
0064F000
000000E1
000A72D3
00000000
00200013
00000000
000A8982
00861A19
00084C0B
000C1D00
00000000
00219A00
000A8982
00861A1F
0008440B
00200041
000140C6
00700000
00200041
000AF0A2
00861A77
000CA460
00000032
0056F000
00000072
000140C0
00000155
0005F424
00FFFFFF
00219400
00000000
00000000
00000000
0007E486
00209C13
000CC6A0
00000013
0056F400
00000009
000D016D
000140C6
0000003F
000140C5
00000008
000D104A
00000006
0064F400
008683E3
000D10C0
00000013
0064F400
00868485
000D10C0
0000000F
0056F400
00000009
000D016D
000140C6
0000003F
000140C5
00000008
0005A7D5
0064F400
00868423
00000000
00000000
00000000
005CEC00
00000000
000D10C0
0000001C
0056F000
00000072
00000000
000140C0
00000155
0005F424
00FFFFFF
00219400
00000000
00000000
00000000
0007E486
00209C13
000CC6A0
00000006
0064F400
00868443
000D10C0
00000007
0064F400
00868463
00000000
00000000
00000000
005CEC00
00000000
00234600
00200052
00000000
00545B00
000A8982
00861A78
00085B8B
000A8982
00861A7B
0008440B
00445B00
004C7000
000000B8
000A8982
00861A81
0008440B
00445B00
004C7000
00000049
000A8982
00861A87
00085B8B
000A8982
00861A8A
00085B8B
000A7293
00000000
0044F400
00000000
000A8981
00861A91
0008C40D
0047FF00
0045FF00
0046FF00
0074FF00
0005FF24
0064FF00
0072FF00
0005FF22
0062FF00
000AF080
00860117
00240000
004C3E00
000BF080
00863725
000BF080
0086321E
000A8981
00861AA5
0008F48D
00000000
000AF080
00860117
000A8981
00861AAB
0008F48D
00000000
000AF080
00860117
00445F00
00455F00
00465F00
00475F00
0004448F
0007F40F
00000A00
000A8982
00861AB8
0008708B
00FFFF8D
0004C48F
0047FF00
0046FF00
0045FF00
0044FF00
000B8640
000A8981
00861AC2
0008F48D
00000000
000AF080
00860117
000A8982
00861AC8
00084E0B
000140C6
0000000F
000C1E90
00000000
0021C400
00000000
00000000
00200013
000A8982
00861AD3
00084E0B
00000000
0021CF00
00000000
00200042
00000000
0009CC0C
00000000
0044F400
000186A0
0006C420
00000000
00000000
000A8981
00861AE2
0008F48D
00000000
000AF080
00860117
00445F00
00455F00
00465F00
00475F00
000A8982
00861AEC
0008708B
00FFFF8D
00200013
000A8982
[...]
00000000
000A8981
00000202
0008D48D
00000000
00000000
00000000
00204C00
00000000
000D10C0
00000006
000A8981
0000020C
0008CC8D
00000000
00000000
000CC681
00000004
00205B00
00000000
00205B00
00000000
00000000
0064FF00
00238600
003C0600
00226E00
000A014E
00205C00
0006C410
00000005
00564C00
00200050
00000000
00000000
0046FF00
0044FF00
0005FF24
0064FF00
0005FF23
0063FF00
0054FF00
0050FF00
0052FF00
00000004
      FC
P 86511C
00525F00
00505F00
00545F00
00465F00
00615F00
00055F21
00665F00
00655F00
00055F25
0005F421
00FFFFFF
00619600
000D10C0
00000004
00205900
00205900
006DF000
00000108
005EF000
00FFFF82
006ED900
000B6534
006DD900
00020D06
006DD900
0005F065
00000109
000AE680
006ED900
000140C6
00000100
0002AD06
006DF000
00000108
00000000
000AE680
006ED900
000A6514
0046DD00
004E7000
00FFFF84
006D7000
00000108
000AE680
0005FF25
0065FF00
0066FF00
0005FF21
0061FF00
0046FF00
0054FF00
0050FF00
0052FF00
00535F00
00515F00
00555F00
00525F00
00505F00
00545F00
00465F00
00445F00
00615F00
00055F21
00655F00
00755F00
00055F25
00665F00
00645F00
00055F24
00618B00
0005F421
00FFFFFF
003D0400
000465A1
004CD900
006ED913
000C1940
00008018
00469200
006DD950
000465A1
000AE680
00219649
000140CE
000FFFFF
0044DD00
0056E500
00262045
00202A5A
00545D00
00F8A600
00248056
0020224A
006CD901
0026F000
006ED956
0002AC06
0005D524
0064E500
0003E9AD
000AE680
00219649
000140CE
000FFFFF
0044DD00
0056CD00
0046C545
00202A51
00000000
00545D00
00F8A600
00202A52
00248000
00546656
0020224A
006CD901
0026F000
006ED956
0002AC06
0005D524
0064E500
0003E9AD
000AE680
00219649
000140CE
000FFFFF
0044DD00
0056CD00
0046C545
00202A51
00000000
00545D00
00F8A600
00248056
0020224A
006CD901
0026F000
006ED956
0002AC06
0005D524
0064E500
0003E9AD
000AE680
00F8BC00
004CD954
006ED900
00202913
000C1E38
004ED911
00646552
000AE680
00F8BC00
004CD954
006ED900
00202913
000C1E38
00646511
006CD900
006DD900
000AE680
00218600
006CD900
005EF000
00FFFF82
000140C6
00000100
006ED900
0002AC06
006DF000
00000109
0005F065
0000010A
000AE680
006ED900
000AC674
000B6534
00465D00
006CD900
00028C06
00000000
006D7000
00000109
000AE680
006ED900
004E7000
00FFFF84
00205900
000AE680
005C6400
00094C01
000AE580
000B71D6
00000006
00040181
000AE680
000B71D6
00000004
00040151
000AE680
0005FF24
0064FF00
0066FF00
0005FF25
0075FF00
0065FF00
0005FF21
0061FF00
0044FF00
0046FF00
0054FF00
0050FF00
0052FF00
0055FF00
0051FF00
0053FF00
00000004
0003C9BF
00260400
0020005A
00000000
0003C9AD
00050C01
000A8241
000C9B96
00000008
000A824B
000A8242
000A824C
000ABF06
000ABF07
00050C03
0007F40B
00000A00
000A0170
000A0153
0005FF24
0064FF00
0066FF00
0005FF25
0075FF00
0065FF00
0005FF21
0061FF00
0044FF00
0046FF00
0054FF00
0050FF00
0052FF00
0055FF00
0051FF00
0053FF00
00000004
     164
P 865218
00635F00
00055F23
00525F00
00505F00
00545F13
00445F00
00455F00
0056F000
0000007A
00000000
00000000
00200003
00052405
0056F000
00000080
00000000
00000000
00219300
0005F423
00FFFFFF
00000000
00000000
00000000
000A73D3
00000005
000A8982
00865231
00084E0B
0044F400
00000000
000140C5
0000003F
0002A040
00000000
00218400
0006C410
00000005
00040363
00000000
00000000
00000000
000A73D3
00000002
00000000
00000000
00000000
0044DB00
0056DB00
00205B00
0044DB44
00202F40
004D8100
00000000
000A8981
0086524D
0008C50D
000A8981
00865250
0008CC0D
0045FF00
0044FF00
0054FF00
0050FF00
0052FF00
0005FF23
0063FF00
00000004
00635F00
00055F23
0063F000
0000008C
0005F423
00FFFFFF
00525F00
00505F00
00545F13
000A73D3
00000005
00445F00
00455F00
000A8982
00865268
0008440B
000A73D3
00000002
004D8100
000A8981
0086526E
0008C50D
0044DB00
0056DB00
00205B00
0044DB44
00202F40
0045FF00
000A8981
00865277
0008CC0D
0044FF00
0054FF00
0050FF00
0052FF00
0005FF23
0063FF00
00000004
00635F00
00735F00
00055F23
00525F00
00505F00
00545F00
0056F000
0000007A
00000000
00000000
00200003
00052405
0056F000
00000080
00000000
00000000
00219300
0005F423
00FFFFFF
00738D00
000A0152
00000000
00000000
000A73D3
00000005
00455F00
00445F00
0044F000
00000077
00040323
00665F00
00055F26
00635F00
0063E300
000A8982
008652A3
0008450B
000A73D6
00000000
000A73E6
00000002
0006C510
0000000D
0022D300
0006C410
00000007
000A8982
008652AF
0008450B
00454B00
00000000
00000000
00205E00
00000000
00000000
00000000
000A8981
008652B9
0008C50D
0063FF00
00236500
003B0600
0022CE00
000466A3
00000000
0063E300
0006C410
00000007
0044E300
000213C4
00546300
00204B00
00200060
00000000
0005FF26
0066FF00
000A8981
008652CD
0008F48D
00000000
0044FF00
0045FF00
0054FF00
0050FF00
0052FF00
0005FF23
0073FF00
0063FF00
00000004
00635F00
00735F00
00055F23
0063F000
0000008C
0005F423
00FFFFFF
00738F00
000A014A
00525F00
00505F00
00545F00
000A73D3
00000005
00445F00
00455F00
0044F000
0000008B
00040323
00665F00
00055F26
00635F00
0063E300
000A8982
008652F1
0008450B
000A73D6
00000000
000A73E6
00000002
0006C510
0000000D
0022D300
0006C410
00000007
000A8982
008652FD
0008450B
00454B00
00000000
00000000
00205E00
00000000
00000000
0063FF00
00236500
003B0400
0022CE00
000466A3
00000000
0066E300
0006C410
00000008
00204B00
0044E600
000216C4
00546600
0066E300
00200060
00000000
000A8981
00865316
0008F48D
00000000
0005FF26
0066FF00
000A8981
0086531C
0008F48D
00000000
0045FF00
0044FF00
0054FF00
0050FF00
0052FF00
0005FF23
0073FF00
0063FF00
00000004
00535F00
00515F00
00555F00
00445F00
00465F00
00615F00
00055F21
00645F00
00055F24
000A8982
00865332
00084F0B
0044F000
00000056
0046F04D
00000080
0056F000
0000007A
00202151
0005F421
00FFFFFF
00219100
0044F000
0000007B
0020214C
000464A1
0021A413
000211D8
000141C2
00000003
00000000
00211100
00000000
00000000
00000000
000A71D4
00000002
000A8982
0086534E
0008460B
000A74D1
00000000
000A74E1
00000002
00222E00
0006C610
00000006
000A8982
00865358
0008598B
00000000
00000000
000A7491
00000000
000214CC
000A8981
00865360
0008C60D
000A8981
00865363
0008F48D
00000000
0005FF24
0064FF00
0005FF21
0061FF00
0046FF00
0044FF00
0055FF00
0051FF00
0053FF00
000AF080
00860117
000A8981
00865372
0008F48D
00000009
00050FD1
000A8981
00865377
0008F48D
00000002
00050FCC
       F
Y 86737D
00000001
00000001
00000001
00000001
00000001
00000001
00000001
00000001
00000001
00000001
00000001
00000001
00000001
00000001
00000001
      53
Y 8673AB
00867556
0086758F
00867418
0086741C
00867530
00867420
008675A4
00867424
00867428
008675AE
0086742C
008675B9
00867430
008675CD
00867434
008675E5
00867438
0086743C
00867440
008675FD
00867444
00867448
0086744C
00867450
00867454
00867458
0086745C
00867460
00867464
00867468
0086746C
00867643
0086765E
00867679
00867470
00867474
00867478
0086747C
00867480
00867484
00867488
0086748C
0086768E
00867490
008676A9
00867494
008676B4
00867498
008676C1
0086749C
008676C9
008674A0
008676D2
008674A4
008676DB
008674A8
00867701
008674AC
008676E4
008674B0
008676ED
008674B4
008676F6
008674B8
00867776
008674BC
008677AC
008674C0
008677B8
008674C4
008677C4
008674C8
008677E0
008674CC
00867748
008674D0
00867753
008674D4
0086775C
008674D8
00867765
008674DC
0086776E
      1A
Y 8673FE
008674E0
008674E4
008674E8
008674EC
008674F0
00867804
00867811
0086780B
008674F4
008674F8
008674FC
00867500
00867504
00867508
0086750C
00867510
00867514
00867518
0086751C
00867520
00867524
0086781B
00867846
00867852
00867528
0086752C
      C8
Y 867418
00000001
00000000
00863DF3
0000020A
00000001
00000000
00863FFD
0000016D
00000001
00000000
0086416A
0000011F
00000001
00000000
00864438
00000021
00000001
00000000
00864403
00000035
00000001
00000000
00864321
0000005A
00000001
00000000
0086437B
00000088
00000001
00000000
00864289
00000098
00000001
00000000
000001B9
00000041
00000001
00000000
00000302
00000041
00000001
00000000
000004FF
000001C3
00000001
00000000
000002BE
00000016
00000001
00000000
000004F3
0000000C
00000001
00000000
00864FEF
00000076
00000001
00000000
00865065
00000004
00000001
00000000
00865069
00000002
00000001
00000000
0086506B
0000000F
00000001
00000000
0086507B
00000009
00000001
00000000
00865084
00000013
00000001
00000000
00865097
00000027
00000001
00000000
008650BE
0000005E
00000001
00000000
000002D4
0000002E
00000001
00000000
000001FA
0000002E
00000001
00000000
00000228
0000002F
00000001
00000000
00000257
0000002A
00000001
00000000
00000281
0000002C
00000001
00000000
000002AD
00000011
00000001
00000000
00000343
00000015
00000001
00000000
00000358
00000011
00000001
00000000
00864A13
0000024D
00000001
00000000
00864C60
00000033
00000001
00000000
00864C93
00000072
00000001
00000000
00864A12
00000001
00000001
00000000
00864898
00000019
00000001
00000000
008648B1
00000012
00000001
00000000
008648C3
00000014
00000001
00000000
00864708
00000190
00000001
00000000
008648F7
00000015
00000001
00000000
0086490C
00000017
00000001
00000000
00864923
00000054
00000001
00000000
008645E1
00000127
00000001
00000000
00864592
0000004F
00000001
00000000
0086455D
00000035
00000001
00000000
008644E9
00000074
00000001
00000000
00864459
00000090
00000001
00000000
008649A7
00000041
00000001
00000000
008649E8
0000000E
00000001
00000000
008649F6
0000000C
00000001
00000000
00864A02
00000010
00000001
00000000
00864DA5
00000249
      50
Y 8674E0
00000001
00000000
00863CC8
00000001
00000001
00000000
00863CC9
00000001
00000001
00000000
0086511C
0000000E
00000001
00000000
00865148
00000009
00000001
00000000
0086512A
0000001E
00000001
00000000
00865151
00000015
00000001
00000000
00865166
00000008
00000001
00000000
0086516E
00000013
00000001
00000000
00865181
00000016
00000001
00000000
00865197
00000014
00000001
00000000
008651AB
00000008
00000001
00000000
008651B3
00000009
00000001
00000000
008651D8
00000003
00000001
00000000
008651BC
0000001C
00000001
00000000
008651DB
00000004
00000001
00000000
008651DF
00000004
00000001
00000000
008651E3
00000011
00000001
00000000
008651F4
00000024
00000001
00000000
00000369
00000062
00000001
00000000
000003CB
0000001A
     2D4
Y 867530
00000002
00000000
00000001
00000000
00000005
00000010
00032004
0007C000
0004C004
00050000
00050004
00050002
00074004
00084000
00032004
0007C000
0004C004
00050000
00050004
00050002
00074004
00084000
000C0004
0010A000
000CA004
0010A000
000EA004
0010A000
000B8043
00000073
000C2043
00000074
000CC043
00000075
000EC043
00000076
00001001
00000000
00000002
00000000
00000001
00000000
00000002
00000019
00320004
0036A000
0033A004
0033E000
0033E004
0033E002
00362004
00372000
00320004
0036A000
0033A004
0033E000
0033E004
0033E002
00362004
00372000
00000043
0000005B
00010043
0000005C
000A0043
0000005D
0008A043
0000005E
00148043
0000005F
00132043
00000060
0024A043
00000061
00274043
00000062
002B2043
00000063
00200043
00000064
00054043
00000065
000FC043
00000066
001B6043
00000067
00022043
00000068
000CA043
00000069
00172043
0000006A
002F0043
0000006B
00000000
00000002
00000000
00000001
00000000
00000003
00000007
00002043
0000006C
00066043
0000006D
000CA043
0000006E
0012A043
0000006F
00188043
00000070
00204043
00000071
00270043
00000072
00000000
00000002
00000000
00000001
00000000
00000007
00000003
0000A001
00026045
00034045
00000000
00000002
00000000
00000001
00000000
00000008
00000004
0000A201
00020045
00040045
00030045
00000000
00000002
00000000
00000001
00000000
0000000A
00000008
0000A201
00000045
0001C045
00032006
0000062E
0003E006
0000062E
00074006
0000062E
00078006
0000062E
00801A01
00003C00
00000000
00000002
00000000
00000001
00000000
0000000C
0000000A
0000A201
00000045
0001C045
0006C006
00000688
00078006
00000688
000AC006
00000688
000D4006
00000688
000B0006
00000688
00801A01
00006A00
00801C01
00005800
00000000
00000002
00000000
00000001
00000000
0000000E
00000009
00007001
0080FA01
00008F00
00000004
000AE002
00004004
0011A002
00008004
00018002
0000C004
000FE002
00010004
00018002
00014004
000AE002
000C2004
000D2000
00000000
00000002
00000000
0000000C
00000000
00000000
00000000
00000000
00000000
00000000
00000000
00000000
00000000
00000000
00000000
00000000
00000010
00000011
00000014
00000015
00000022
00000023
00000024
00000025
00000026
0000001E
00000027
00000028
0000001F
0000E601
00006045
00032004
00000102
0006A045
00808801
00000001
000600C5
000440C5
0000C0C5
000360C5
00000145
00008145
0000C104
00000182
00808401
00000004
0000C245
0004A245
0003E245
00030245
00808601
00000005
000082C5
000262C5
000442C5
000342C5
00000363
0000016E
000003E3
00000170
00000463
00000172
0080D401
00000009
0000C4C5
0002A4C5
000484C5
00808A01
0000000A
00808C01
0000000B
00000002
00000000
00000005
00000000
00000000
00000000
00000000
00000000
00000016
00000017
00000019
0000001A
0000001B
00000006
00000023
000000D7
000001A3
000000D9
0002E023
000000DB
0008A023
000000DC
000EC004
00004100
00000063
00860415
00000000
00000002
00000000
00000005
00000000
00000000
00000000
00000000
00000000
00000016
00000018
00000019
0000001A
0000001B
00000006
00000023
000000D7
000001A3
000000D9
0002E023
000000DB
0008A023
000000DC
000EC004
00004100
00000063
00860415
00000000
00000002
00000000
00000002
00000000
00000000
0000001C
0000001D
0000000A
0000B401
0000A045
0002E004
00034000
00040045
0080B601
00000001
000260C5
000360C5
000780C5
000580C5
000640C5
00000000
00000002
00000000
00000001
00000000
00000029
0000000A
00000043
000000B7
00078043
000000AA
000D2043
000000AB
00138043
000000AC
00196043
000000AD
002E4043
000000B2
00312043
000000B3
00342043
000000B4
00368043
000000B5
0046C043
000000B6
00000000
00000002
00000000
00000001
00000000
0000002B
00000003
00014006
00864C60
00050006
00864C60
0000A401
00000002
00000000
00000001
00000000
0000002D
00000004
00010006
00864C93
00044006
00864C93
0000A601
00801E01
00006D00
00000002
00000000
00000001
00000000
0000002F
00000001
00000043
000000A5
00000002
00000000
00000001
00000000
00000031
00000001
00000043
00000077
00000000
00000002
00000000
00000001
00000000
00000033
00000001
00000043
00000078
00000000
00000002
00000000
00000001
00000000
00000035
00000001
00000043
00000079
00000000
00000002
00000000
00000001
00000000
00000039
00000001
00000043
0000007A
00000000
00000002
00000000
00000001
00000000
0000003B
00000001
00000043
0000007B
00000000
00000002
00000000
00000001
00000000
0000003D
00000002
00000043
0000007C
00054043
0000007D
00000000
00000002
00000000
00000001
00000000
00000037
00000020
0031A043
0000002F
00184043
00000030
00000043
00000087
00022043
00000088
0006C043
0000008A
00046043
00000089
00092043
0000008B
000BC043
0000008C
0011E043
0000008E
000F0043
0000008D
0014C043
0000008F
001AC043
00000090
001BE043
00000091
001D0043
00000092
001E2043
00000093
001F4043
00000094
00206043
00000095
00218043
00000096
0022A043
00000097
0023C043
00000098
0024E043
00000099
00260043
0000009A
00272043
0000009B
00284043
0000009C
00296043
0000009D
002A8043
0000009E
002BA043
0000009F
002CC043
000000A0
002DE043
000000A1
002F0043
000000A2
002FE043
000000A3
0030C043
000000A4
00000000
00000002
00000000
00000001
00000000
00000049
00000002
00000043
00000083
00801201
00001300
00000000
00000002
00000000
00000001
00000000
0000004B
00000001
00000043
00000084
00000000
00000002
00000000
00000001
00000000
0000004D
00000001
00000043
00000085
00000000
00000002
00000000
00000001
00000000
0000004F
00000001
00000043
00000086
00000000
00000002
00000000
00000001
00000000
00000051
00000001
0000A801
00000000
00000002
00000000
00000001
00000000
0000003F
00000018
00052006
000008EE
00056006
000008EE
0005A006
000008EE
0007C006
000008EE
000A6006
000008EE
000BA006
000008EE
000C0006
000008EE
000D4006
000008EE
00120006
000008EE
00124006
000008EE
00128006
000008EE
0012C006
000008EE
00130006
000008EE
00134006
000008EE
00138006
000008EE
0013C006
000008EE
00140006
000008EE
0017C006
000008EE
001C0006
000008EE
001E6006
000008EE
001F4006
000008EE
001F8006
000008EE
00206006
000008EE
00001801
00000000
00000002
00000000
00000001
00000000
00000041
00000003
00074006
0000089F
00092006
0000089F
0000A001
00000000
00000002
00000000
00000001
00000000
00000043
00000003
00046006
0000086A
0005E006
0000086A
0000A001
00000000
00000002
00000000
00000001
00000000
00000045
0000000B
00036006
000007F6
0006A006
000007F6
00090006
000007F6
00048006
000007F6
00052006
000007F6
0005A006
000007F6
00076006
000007F6
00078006
000007F6
0009E006
000007F6
000AC006
000007F6
0000A201
00000000
00000002
00000000
00000001
00000000
00000047
0000000F
00036006
00000766
0006A006
00000766
00090006
00000766
000B6006
00000766
000E0006
00000766
00048006
00000766
00052006
00000766
0005A006
00000766
00076006
00000766
00078006
00000766
0009E006
00000766
000A6006
00000766
000C6006
00000766
000C8006
00000766
0000A201
00000000
      5E
Y 867804
00000002
00000000
00000001
00000000
00000055
00000001
00001201
00000003
00000000
00000001
00000000
00000057
00000000
00000002
00000000
00000002
00000000
00000000
00000056
00000053
00000001
00000023
00000089
00000002
00000000
00000009
00000000
00000000
00000000
00000000
00000000
00000000
00000000
00000000
00000000
0000005B
0000005C
0000005D
0000005E
0000005F
00000060
00000064
00000066
00000067
0000000B
00002801
00000043
0086739B
000000C3
0086739C
00000143
0086739D
000001C3
0086739E
00000243
0086739F
000002C3
008673A0
00000343
008673A6
000003C3
008673A8
00000443
008673A9
00000443
008673AA
00000003
00000000
00000001
00000000
00000063
00000003
00000043
008673A3
0001A043
008673A4
0002E043
008673A5
00000002
00000000
00000003
00000000
00000000
00000000
00000061
00000062
00000065
00000003
00000043
008673A1
000000C3
008673A2
00000143
008673A7
       1
Y 867963
00000000
     142
Y 8683E3
00000008
00000009
0000000A
0000000B
0000000C
0000000D
0000000E
0000000F
00000010
00000011
00000012
00000013
00000014
00000015
00000016
00000017
00000800
00000900
00000A00
00000B00
00000C00
00000D00
00000E00
00000F00
00001000
00001100
00001200
00001300
00001400
00001500
00001600
00001700
00000020
00000021
00000022
00000023
00000024
00000025
00000026
00000027
00000040
00000041
00000042
00000043
00000044
00000045
00000046
00000047
00002000
00002100
00002200
00002300
00002400
00002500
00002600
00002700
00004000
00004100
00004200
00004300
00004400
00004500
00004600
00004700
00000008
00000009
0000000A
0000000B
0000000C
0000000D
0000000E
0000000F
00000010
00000011
00000012
00000013
00000014
00000015
00000016
00000017
00000020
00000021
00000022
00000023
00000024
00000025
00000026
00000027
00000040
00000041
00000042
00000043
00000044
00000045
00000046
00000047
00000018
00000019
0000001A
0000001B
0000001C
0000001D
0000001E
0000001F
00001800
00001900
00001A00
00001B00
00001C00
00001D00
00001E00
00001F00
00000060
00000061
00000062
00000063
00000064
00000065
00000066
00000067
00006000
00006100
00006200
00006300
00006400
00006500
00006600
00006700
00000018
00000019
0000001A
0000001B
0000001C
0000001D
0000001E
0000001F
00000060
00000061
00000062
00000063
00000064
00000065
00000066
00000067
00000018
00000019
0000001A
0000001B
0000001C
0000001D
0000001E
0000001F
00000060
00001800
00001900
00001A00
00001B00
00001C00
00001D00
00001E00
00001F00
00006000
00000008
00000009
0000000A
0000000B
0000000C
0000000D
0000000E
0000000F
00000010
00000011
00000012
00000013
00000014
00000015
00000016
00000017
00000800
00000900
00000A00
00000B00
00000C00
00000D00
00000E00
00000F00
00001000
00001100
00001200
00001300
00001400
00001500
00001600
00001700
00008000
00008001
00008002
00008003
00008004
00008005
00008006
00008007
00008020
00008021
00008022
00008023
00008024
00008025
00008026
00008027
00008040
00008140
00008240
00008340
00008440
00008540
00008640
00008740
00008060
00008160
00008260
00008360
00008460
00008560
00008660
00008760
0000A000
0000A001
0000A002
0000A003
0000A004
0000A005
0000A006
0000A007
0000A020
0000A021
0000A022
0000A023
0000A024
0000A025
0000A026
0000A027
0000A040
0000A140
0000A240
0000A340
0000A440
0000A540
0000A640
0000A740
0000A060
0000A160
0000A260
0000A360
0000A460
0000A560
0000A660
0000A760
0000C000
0000C001
0000C002
0000C003
0000C004
0000C005
0000C006
0000C007
0000C020
0000C021
0000C022
0000C023
0000C024
0000C025
0000C026
0000C027
0000C040
0000C140
0000C240
0000C340
0000C440
0000C540
0000C640
0000C740
0000C060
0000C160
0000C260
0000C360
0000C460
0000C560
0000C660
0000C760
0000E000
0000E001
0000E002
0000E003
0000E004
0000E005
0000E006
0000E007
0000E020
0000E021
0000E022
0000E023
0000E024
0000E025
0000E026
0000E027
0000E040
0000E140
0000E240
0000E340
0000E440
0000E540
0000E640
0000E740
0000E060
0000E160
0000E260
0000E360
0000E460
0000E560
0000E660
0000E760
       0
E 000100
